Script started on 2023-10-11 13:03:07+05:30 [TERM="xterm-256color" TTY="/dev/pts/25" COLUMNS="173" LINES="23"]
[?2004h]0;anishk@wellsfargo-OptiPlex-5090: ~/ChampSim[01;32manishk@wellsfargo-OptiPlex-5090[00m:[01;34m~/ChampSim[00m$ script hybrid_tg1.txtmake[K./config.sh champsim_config.json[11Pscript hybrid_tp1.txtmake[K./config.sh champsim_config.jsonmake[K./config.sh champsim_config.jsonbin/champsim --warmup_instructions 200000000 --simulation_instructions 500000000 ~/Downloads/602.gcc_s-2226B.champsimtrace.xz [1P5.mcf_s-472[C[C[C[C[C[C[C[C[C[C[C[C[C[C[C[C[C[C[C25.x264_s-18[C[C[C[C[C[C[C[C[C[C[C[C[C[C[C[C[C[C[C05.mcf_s-472[C[C[C[C[C[C[C[C[C[C[C[C[C[C[C[C[C[C[C[1@2.gcc_s-2226[C[C[C[C[C[C[C[C[C[C[C[C[C[C[C[C[C[C[C
[?2004lWARNING: physical memory size is smaller than virtual memory size.
WARNING: option --warmup_instructions is deprecated. Use --warmup-instructions instead.
WARNING: option --simulation_instructions is deprecated. Use --simulation-instructions instead.

*** ChampSim Multicore Out-of-Order Simulator ***
Warmup Instructions: 200000000
Simulation Instructions: 500000000
Number of CPUs: 1
Page size: 4096

Off-chip DRAM Size: 4 GiB Channels: 1 Width: 64-bit Data Race: 3200 MT/s
Heartbeat CPU 0 instructions: 10000000 cycles: 2500046 heartbeat IPC: 4 cumulative IPC: 4 (Simulation time: 00 hr 00 min 20 sec)
Heartbeat CPU 0 instructions: 20000000 cycles: 5000046 heartbeat IPC: 4 cumulative IPC: 4 (Simulation time: 00 hr 00 min 41 sec)
Heartbeat CPU 0 instructions: 30000000 cycles: 7500046 heartbeat IPC: 4 cumulative IPC: 4 (Simulation time: 00 hr 01 min 02 sec)
Heartbeat CPU 0 instructions: 40000000 cycles: 10000046 heartbeat IPC: 4 cumulative IPC: 4 (Simulation time: 00 hr 01 min 23 sec)
Heartbeat CPU 0 instructions: 50000000 cycles: 12500046 heartbeat IPC: 4 cumulative IPC: 4 (Simulation time: 00 hr 01 min 44 sec)
Heartbeat CPU 0 instructions: 60000000 cycles: 15000046 heartbeat IPC: 4 cumulative IPC: 4 (Simulation time: 00 hr 02 min 03 sec)
Heartbeat CPU 0 instructions: 70000000 cycles: 17500046 heartbeat IPC: 4 cumulative IPC: 4 (Simulation time: 00 hr 02 min 22 sec)
Heartbeat CPU 0 instructions: 80000000 cycles: 20000046 heartbeat IPC: 4 cumulative IPC: 4 (Simulation time: 00 hr 02 min 42 sec)
Heartbeat CPU 0 instructions: 90000000 cycles: 22500046 heartbeat IPC: 4 cumulative IPC: 4 (Simulation time: 00 hr 03 min 02 sec)
Heartbeat CPU 0 instructions: 100000000 cycles: 25000046 heartbeat IPC: 4 cumulative IPC: 4 (Simulation time: 00 hr 03 min 20 sec)
Heartbeat CPU 0 instructions: 110000000 cycles: 27500046 heartbeat IPC: 4 cumulative IPC: 4 (Simulation time: 00 hr 03 min 38 sec)
Heartbeat CPU 0 instructions: 120000000 cycles: 30000046 heartbeat IPC: 4 cumulative IPC: 4 (Simulation time: 00 hr 03 min 56 sec)
Heartbeat CPU 0 instructions: 130000000 cycles: 32500046 heartbeat IPC: 4 cumulative IPC: 4 (Simulation time: 00 hr 04 min 14 sec)
Heartbeat CPU 0 instructions: 140000000 cycles: 35000046 heartbeat IPC: 4 cumulative IPC: 4 (Simulation time: 00 hr 04 min 32 sec)
Heartbeat CPU 0 instructions: 150000000 cycles: 37500046 heartbeat IPC: 4 cumulative IPC: 4 (Simulation time: 00 hr 04 min 50 sec)
Heartbeat CPU 0 instructions: 160000000 cycles: 40000046 heartbeat IPC: 4 cumulative IPC: 4 (Simulation time: 00 hr 05 min 08 sec)
Heartbeat CPU 0 instructions: 170000000 cycles: 42500046 heartbeat IPC: 4 cumulative IPC: 4 (Simulation time: 00 hr 05 min 26 sec)
Heartbeat CPU 0 instructions: 180000000 cycles: 45000046 heartbeat IPC: 4 cumulative IPC: 4 (Simulation time: 00 hr 05 min 44 sec)
Heartbeat CPU 0 instructions: 190000000 cycles: 47500046 heartbeat IPC: 4 cumulative IPC: 4 (Simulation time: 00 hr 06 min 02 sec)
Heartbeat CPU 0 instructions: 200000000 cycles: 50000046 heartbeat IPC: 4 cumulative IPC: 4 (Simulation time: 00 hr 06 min 20 sec)
Warmup finished CPU 0 instructions: 200000000 cycles: 50000047 cumulative IPC: 4 (Simulation time: 00 hr 06 min 20 sec)
Warmup complete CPU 0 instructions: 200000000 cycles: 50000047 cumulative IPC: 4 (Simulation time: 00 hr 06 min 20 sec)
Heartbeat CPU 0 instructions: 210000003 cycles: 64273095 heartbeat IPC: 0.7006 cumulative IPC: 0.7006 (Simulation time: 00 hr 07 min 18 sec)
Heartbeat CPU 0 instructions: 220000002 cycles: 78817150 heartbeat IPC: 0.6876 cumulative IPC: 0.694 (Simulation time: 00 hr 08 min 15 sec)
Heartbeat CPU 0 instructions: 230000000 cycles: 92633992 heartbeat IPC: 0.7238 cumulative IPC: 0.7037 (Simulation time: 00 hr 09 min 12 sec)
Heartbeat CPU 0 instructions: 240000001 cycles: 106914666 heartbeat IPC: 0.7002 cumulative IPC: 0.7028 (Simulation time: 00 hr 10 min 13 sec)
Heartbeat CPU 0 instructions: 250000004 cycles: 121392798 heartbeat IPC: 0.6907 cumulative IPC: 0.7004 (Simulation time: 00 hr 11 min 12 sec)
Heartbeat CPU 0 instructions: 260000000 cycles: 135854193 heartbeat IPC: 0.6915 cumulative IPC: 0.6989 (Simulation time: 00 hr 12 min 10 sec)
Heartbeat CPU 0 instructions: 270000000 cycles: 149909611 heartbeat IPC: 0.7115 cumulative IPC: 0.7006 (Simulation time: 00 hr 13 min 07 sec)
Heartbeat CPU 0 instructions: 280000003 cycles: 164227778 heartbeat IPC: 0.6984 cumulative IPC: 0.7004 (Simulation time: 00 hr 14 min 07 sec)
Heartbeat CPU 0 instructions: 290000003 cycles: 178734151 heartbeat IPC: 0.6894 cumulative IPC: 0.6991 (Simulation time: 00 hr 15 min 08 sec)
Heartbeat CPU 0 instructions: 300000000 cycles: 192974336 heartbeat IPC: 0.7022 cumulative IPC: 0.6994 (Simulation time: 00 hr 16 min 09 sec)
Heartbeat CPU 0 instructions: 310000004 cycles: 207307552 heartbeat IPC: 0.6977 cumulative IPC: 0.6993 (Simulation time: 00 hr 17 min 08 sec)
Heartbeat CPU 0 instructions: 320000003 cycles: 221754247 heartbeat IPC: 0.6922 cumulative IPC: 0.6987 (Simulation time: 00 hr 18 min 08 sec)
Heartbeat CPU 0 instructions: 330000004 cycles: 236270353 heartbeat IPC: 0.6889 cumulative IPC: 0.6979 (Simulation time: 00 hr 19 min 09 sec)
Heartbeat CPU 0 instructions: 340000002 cycles: 250420713 heartbeat IPC: 0.7067 cumulative IPC: 0.6985 (Simulation time: 00 hr 20 min 06 sec)
Heartbeat CPU 0 instructions: 350000004 cycles: 264669865 heartbeat IPC: 0.7018 cumulative IPC: 0.6987 (Simulation time: 00 hr 21 min 03 sec)
Heartbeat CPU 0 instructions: 360000002 cycles: 279198358 heartbeat IPC: 0.6883 cumulative IPC: 0.6981 (Simulation time: 00 hr 22 min 02 sec)
Heartbeat CPU 0 instructions: 370000004 cycles: 293517981 heartbeat IPC: 0.6983 cumulative IPC: 0.6981 (Simulation time: 00 hr 23 min 01 sec)
Heartbeat CPU 0 instructions: 380000002 cycles: 307602023 heartbeat IPC: 0.71 cumulative IPC: 0.6988 (Simulation time: 00 hr 24 min 00 sec)
Heartbeat CPU 0 instructions: 390000002 cycles: 321986856 heartbeat IPC: 0.6952 cumulative IPC: 0.6986 (Simulation time: 00 hr 24 min 59 sec)
Heartbeat CPU 0 instructions: 400000003 cycles: 336474398 heartbeat IPC: 0.6902 cumulative IPC: 0.6981 (Simulation time: 00 hr 25 min 58 sec)
Heartbeat CPU 0 instructions: 410000001 cycles: 350688638 heartbeat IPC: 0.7035 cumulative IPC: 0.6984 (Simulation time: 00 hr 26 min 56 sec)
Heartbeat CPU 0 instructions: 420000001 cycles: 364985867 heartbeat IPC: 0.6994 cumulative IPC: 0.6984 (Simulation time: 00 hr 27 min 55 sec)
Heartbeat CPU 0 instructions: 430000000 cycles: 379467477 heartbeat IPC: 0.6905 cumulative IPC: 0.6981 (Simulation time: 00 hr 28 min 56 sec)
Heartbeat CPU 0 instructions: 440000000 cycles: 393954030 heartbeat IPC: 0.6903 cumulative IPC: 0.6978 (Simulation time: 00 hr 29 min 55 sec)
Heartbeat CPU 0 instructions: 450000004 cycles: 407645737 heartbeat IPC: 0.7304 cumulative IPC: 0.699 (Simulation time: 00 hr 30 min 52 sec)
Heartbeat CPU 0 instructions: 460000004 cycles: 420895714 heartbeat IPC: 0.7547 cumulative IPC: 0.701 (Simulation time: 00 hr 31 min 44 sec)
Heartbeat CPU 0 instructions: 470000000 cycles: 434638296 heartbeat IPC: 0.7277 cumulative IPC: 0.702 (Simulation time: 00 hr 32 min 39 sec)
Heartbeat CPU 0 instructions: 480000000 cycles: 448951933 heartbeat IPC: 0.6986 cumulative IPC: 0.7018 (Simulation time: 00 hr 33 min 35 sec)
Heartbeat CPU 0 instructions: 490000000 cycles: 462501868 heartbeat IPC: 0.738 cumulative IPC: 0.703 (Simulation time: 00 hr 34 min 29 sec)
Heartbeat CPU 0 instructions: 500000000 cycles: 476784458 heartbeat IPC: 0.7002 cumulative IPC: 0.7029 (Simulation time: 00 hr 35 min 25 sec)
Heartbeat CPU 0 instructions: 510000001 cycles: 491302747 heartbeat IPC: 0.6888 cumulative IPC: 0.7025 (Simulation time: 00 hr 36 min 21 sec)
Heartbeat CPU 0 instructions: 520000000 cycles: 505631159 heartbeat IPC: 0.6979 cumulative IPC: 0.7023 (Simulation time: 00 hr 37 min 17 sec)
Heartbeat CPU 0 instructions: 530000001 cycles: 519765300 heartbeat IPC: 0.7075 cumulative IPC: 0.7025 (Simulation time: 00 hr 38 min 11 sec)
Heartbeat CPU 0 instructions: 540000001 cycles: 534150688 heartbeat IPC: 0.6951 cumulative IPC: 0.7023 (Simulation time: 00 hr 39 min 04 sec)
Heartbeat CPU 0 instructions: 550000000 cycles: 548648832 heartbeat IPC: 0.6897 cumulative IPC: 0.7019 (Simulation time: 00 hr 39 min 58 sec)
Heartbeat CPU 0 instructions: 560000001 cycles: 561456663 heartbeat IPC: 0.7808 cumulative IPC: 0.7039 (Simulation time: 00 hr 40 min 46 sec)
Heartbeat CPU 0 instructions: 570000001 cycles: 575824025 heartbeat IPC: 0.696 cumulative IPC: 0.7037 (Simulation time: 00 hr 41 min 40 sec)
Heartbeat CPU 0 instructions: 580000003 cycles: 590181741 heartbeat IPC: 0.6965 cumulative IPC: 0.7035 (Simulation time: 00 hr 42 min 34 sec)
Heartbeat CPU 0 instructions: 590000002 cycles: 604669215 heartbeat IPC: 0.6903 cumulative IPC: 0.7031 (Simulation time: 00 hr 43 min 28 sec)
Heartbeat CPU 0 instructions: 600000003 cycles: 618527650 heartbeat IPC: 0.7216 cumulative IPC: 0.7036 (Simulation time: 00 hr 44 min 21 sec)
Heartbeat CPU 0 instructions: 610000002 cycles: 632773316 heartbeat IPC: 0.702 cumulative IPC: 0.7035 (Simulation time: 00 hr 45 min 14 sec)
Heartbeat CPU 0 instructions: 620000004 cycles: 647279083 heartbeat IPC: 0.6894 cumulative IPC: 0.7032 (Simulation time: 00 hr 46 min 08 sec)
Heartbeat CPU 0 instructions: 630000002 cycles: 661762276 heartbeat IPC: 0.6905 cumulative IPC: 0.7029 (Simulation time: 00 hr 47 min 01 sec)
Heartbeat CPU 0 instructions: 640000002 cycles: 676071175 heartbeat IPC: 0.6989 cumulative IPC: 0.7028 (Simulation time: 00 hr 47 min 54 sec)
Heartbeat CPU 0 instructions: 650000000 cycles: 690391347 heartbeat IPC: 0.6983 cumulative IPC: 0.7027 (Simulation time: 00 hr 48 min 48 sec)
Heartbeat CPU 0 instructions: 660000003 cycles: 704901296 heartbeat IPC: 0.6892 cumulative IPC: 0.7024 (Simulation time: 00 hr 49 min 42 sec)
Heartbeat CPU 0 instructions: 670000001 cycles: 719203980 heartbeat IPC: 0.6992 cumulative IPC: 0.7023 (Simulation time: 00 hr 50 min 35 sec)
Heartbeat CPU 0 instructions: 680000000 cycles: 731704358 heartbeat IPC: 0.8 cumulative IPC: 0.7041 (Simulation time: 00 hr 51 min 21 sec)
Heartbeat CPU 0 instructions: 690000000 cycles: 745998845 heartbeat IPC: 0.6996 cumulative IPC: 0.704 (Simulation time: 00 hr 52 min 15 sec)
Heartbeat CPU 0 instructions: 700000003 cycles: 760486355 heartbeat IPC: 0.6902 cumulative IPC: 0.7037 (Simulation time: 00 hr 53 min 09 sec)
Simulation finished CPU 0 instructions: 500000003 cycles: 710486309 cumulative IPC: 0.7037 (Simulation time: 00 hr 53 min 09 sec)
Simulation complete CPU 0 instructions: 500000003 cycles: 710486309 cumulative IPC: 0.7037 (Simulation time: 00 hr 53 min 09 sec)

ChampSim completed all CPUs

=== Simulation ===
CPU 0 runs /home/anishk/Downloads/602.gcc_s-2226B.champsimtrace.xz
Region of Interest Statistics

CPU 0 cumulative IPC: 0.7037 instructions: 500000003 cycles: 710486309
CPU 0 Branch Prediction Accuracy: 99.09% MPKI: 3.232 Average ROB Occupancy at Mispredict: 125.3
Branch type MPKI
BRANCH_DIRECT_JUMP: 0.121
BRANCH_INDIRECT: 0
BRANCH_CONDITIONAL: 3.11
BRANCH_DIRECT_CALL: 0.0032
BRANCH_INDIRECT_CALL: 2e-06
BRANCH_RETURN: 4.8e-05

LLC TOTAL        ACCESS:   34735893 HIT:     131488 MISS:   34604405
LLC LOAD         ACCESS:   34511860 HIT:      49260 MISS:   34462600
LLC RFO          ACCESS:      16491 HIT:       1622 MISS:      14869
LLC PREFETCH     ACCESS:          0 HIT:          0 MISS:          0
LLC WRITE        ACCESS:      63421 HIT:      63189 MISS:        232
LLC TRANSLATION  ACCESS:     144121 HIT:      17417 MISS:     126704
LLC PREFETCH REQUESTED:          0 ISSUED:          0 USEFUL:          0 USELESS:          0
LLC AVERAGE MISS LATENCY: 179.3 cycles
cpu0_DTLB TOTAL        ACCESS:   69977446 HIT:   62961484 MISS:    7015962
cpu0_DTLB LOAD         ACCESS:   69977446 HIT:   62961484 MISS:    7015962
cpu0_DTLB RFO          ACCESS:          0 HIT:          0 MISS:          0
cpu0_DTLB PREFETCH     ACCESS:          0 HIT:          0 MISS:          0
cpu0_DTLB WRITE        ACCESS:          0 HIT:          0 MISS:          0
cpu0_DTLB TRANSLATION  ACCESS:          0 HIT:          0 MISS:          0
cpu0_DTLB PREFETCH REQUESTED:          0 ISSUED:          0 USEFUL:          0 USELESS:          0
cpu0_DTLB AVERAGE MISS LATENCY: 7.544 cycles
cpu0_ITLB TOTAL        ACCESS:        636 HIT:        627 MISS:          9
cpu0_ITLB LOAD         ACCESS:        636 HIT:        627 MISS:          9
cpu0_ITLB RFO          ACCESS:          0 HIT:          0 MISS:          0
cpu0_ITLB PREFETCH     ACCESS:          0 HIT:          0 MISS:          0
cpu0_ITLB WRITE        ACCESS:          0 HIT:          0 MISS:          0
cpu0_ITLB TRANSLATION  ACCESS:          0 HIT:          0 MISS:          0
cpu0_ITLB PREFETCH REQUESTED:          0 ISSUED:          0 USEFUL:          0 USELESS:          0
cpu0_ITLB AVERAGE MISS LATENCY: 381.3 cycles
cpu0_L1D TOTAL        ACCESS:   94853287 HIT:   21375817 MISS:   73477470
cpu0_L1D LOAD         ACCESS:   86743491 HIT:   13469416 MISS:   73274075
cpu0_L1D RFO          ACCESS:          0 HIT:          0 MISS:          0
cpu0_L1D PREFETCH     ACCESS:          0 HIT:          0 MISS:          0
cpu0_L1D WRITE        ACCESS:    7425745 HIT:    7395446 MISS:      30299
cpu0_L1D TRANSLATION  ACCESS:     684051 HIT:     510955 MISS:     173096
cpu0_L1D PREFETCH REQUESTED:          0 ISSUED:          0 USEFUL:          0 USELESS:          0
cpu0_L1D AVERAGE MISS LATENCY: 97.62 cycles
cpu0_L1I TOTAL        ACCESS:        692 HIT:        625 MISS:         67
cpu0_L1I LOAD         ACCESS:        692 HIT:        625 MISS:         67
cpu0_L1I RFO          ACCESS:          0 HIT:          0 MISS:          0
cpu0_L1I PREFETCH     ACCESS:          0 HIT:          0 MISS:          0
cpu0_L1I WRITE        ACCESS:          0 HIT:          0 MISS:          0
cpu0_L1I TRANSLATION  ACCESS:          0 HIT:          0 MISS:          0
cpu0_L1I PREFETCH REQUESTED:          0 ISSUED:          0 USEFUL:          0 USELESS:          0
cpu0_L1I AVERAGE MISS LATENCY: 173 cycles
cpu0_L2C TOTAL        ACCESS:   34818881 HIT:     146148 MISS:   34672733
cpu0_L2C LOAD         ACCESS:   34559375 HIT:      47515 MISS:   34511860
cpu0_L2C RFO          ACCESS:      17788 HIT:       1297 MISS:      16491
cpu0_L2C PREFETCH     ACCESS:          0 HIT:          0 MISS:          0
cpu0_L2C WRITE        ACCESS:      69520 HIT:      69259 MISS:        261
cpu0_L2C TRANSLATION  ACCESS:     172198 HIT:      28077 MISS:     144121
cpu0_L2C PREFETCH REQUESTED:          0 ISSUED:          0 USEFUL:          0 USELESS:          0
cpu0_L2C AVERAGE MISS LATENCY: 199.9 cycles
cpu0_STLB TOTAL        ACCESS:     694488 HIT:      25971 MISS:     668517
cpu0_STLB LOAD         ACCESS:     694488 HIT:      25971 MISS:     668517
cpu0_STLB RFO          ACCESS:          0 HIT:          0 MISS:          0
cpu0_STLB PREFETCH     ACCESS:          0 HIT:          0 MISS:          0
cpu0_STLB WRITE        ACCESS:          0 HIT:          0 MISS:          0
cpu0_STLB TRANSLATION  ACCESS:          0 HIT:          0 MISS:          0
cpu0_STLB PREFETCH REQUESTED:          0 ISSUED