Script started on 2023-09-23 12:29:38+05:30 [TERM="xterm-256color" TTY="/dev/pts/2" COLUMNS="165" LINES="13"]
[?2004h]0;anishk@wellsfargo-OptiPlex-5090: ~/ChampSim[01;32manishk@wellsfargo-OptiPlex-5090[00m:[01;34m~/ChampSim[00m$ bin/champsim --warmup_instructions 200000000 --simulation_instructions 500000000 ~/Downloads/602.gcc_s-2226B.champsimtrace.xz >>gtrace1.txt[K[K[K[K[K[K[K[K[K[K[K[K[K[K[K[A]0;anishk@wellsfargo-OptiPlex-5090: ~/ChampSim[01;32manishk@wellsfargo-OptiPlex-5090[00m:[01;34m~/ChampSim[00m$ bin/champsim --warmup_instructions 200000000 --simulation_instructions 500000000 ~/Downloads/602.gcc_s-2226B.champsimtrace.xz[K[A]0;anishk@wellsfargo-OptiPlex-5090: ~/ChampSim[01;32manishk@wellsfargo-OptiPlex-5090[00m:[01;34m~/ChampSim[00m$ bin/champsim --warmup_instructions 200000000 --simulation_instructions 500000000 ~/Downloads/602.gcc_s-2226B.champsimtrace.xz[K]0;anishk@wellsfargo-OptiPlex-5090: ~/ChampSim[01;32manishk@wellsfargo-OptiPlex-5090[00m:[01;34m~/ChampSim[00m$ bin/champsim --warmup_instructions 200000000 --simulation_instructions 500000000 ~/Downloads/602.gcc_s-2226B.champsimtrace.xz[K[K[K[K[K[K[K[K[K[K[K[K[K[K[K[K[K[K[K[K[K[K[K[K[K[K[K[K[K[K5.mcf_s-472B.chamo[Kpsimtrace.xz
[?2004lWARNING: physical memory size is smaller than virtual memory size.
WARNING: option --warmup_instructions is deprecated. Use --warmup-instructions instead.
WARNING: option --simulation_instructions is deprecated. Use --simulation-instructions instead.

*** ChampSim Multicore Out-of-Order Simulator ***
Warmup Instructions: 200000000
Simulation Instructions: 500000000
Number of CPUs: 1
Page size: 4096

Off-chip DRAM Size: 4 GiB Channels: 1 Width: 64-bit Data Race: 3200 MT/s
Heartbeat CPU 0 instructions: 10000003 cycles: 2991585 heartbeat IPC: 3.343 cumulative IPC: 3.343 (Simulation time: 00 hr 00 min 18 sec)
Heartbeat CPU 0 instructions: 20000002 cycles: 5823316 heartbeat IPC: 3.531 cumulative IPC: 3.434 (Simulation time: 00 hr 00 min 36 sec)
Heartbeat CPU 0 instructions: 30000003 cycles: 8581200 heartbeat IPC: 3.626 cumulative IPC: 3.496 (Simulation time: 00 hr 00 min 55 sec)
Heartbeat CPU 0 instructions: 40000002 cycles: 11571151 heartbeat IPC: 3.345 cumulative IPC: 3.457 (Simulation time: 00 hr 01 min 13 sec)
Heartbeat CPU 0 instructions: 50000002 cycles: 14505598 heartbeat IPC: 3.408 cumulative IPC: 3.447 (Simulation time: 00 hr 01 min 31 sec)
Heartbeat CPU 0 instructions: 60000004 cycles: 17431498 heartbeat IPC: 3.418 cumulative IPC: 3.442 (Simulation time: 00 hr 01 min 49 sec)
Heartbeat CPU 0 instructions: 70000001 cycles: 20384955 heartbeat IPC: 3.386 cumulative IPC: 3.434 (Simulation time: 00 hr 02 min 07 sec)
Heartbeat CPU 0 instructions: 80000000 cycles: 23214872 heartbeat IPC: 3.534 cumulative IPC: 3.446 (Simulation time: 00 hr 02 min 24 sec)
Heartbeat CPU 0 instructions: 90000001 cycles: 26173626 heartbeat IPC: 3.38 cumulative IPC: 3.439 (Simulation time: 00 hr 02 min 42 sec)
Heartbeat CPU 0 instructions: 100000000 cycles: 29045190 heartbeat IPC: 3.482 cumulative IPC: 3.443 (Simulation time: 00 hr 03 min 01 sec)
Heartbeat CPU 0 instructions: 110000004 cycles: 32045237 heartbeat IPC: 3.333 cumulative IPC: 3.433 (Simulation time: 00 hr 03 min 20 sec)
Heartbeat CPU 0 instructions: 120000004 cycles: 34969516 heartbeat IPC: 3.42 cumulative IPC: 3.432 (Simulation time: 00 hr 03 min 38 sec)
Heartbeat CPU 0 instructions: 130000000 cycles: 37888962 heartbeat IPC: 3.425 cumulative IPC: 3.431 (Simulation time: 00 hr 03 min 57 sec)
Heartbeat CPU 0 instructions: 140000001 cycles: 40768105 heartbeat IPC: 3.473 cumulative IPC: 3.434 (Simulation time: 00 hr 04 min 15 sec)
Heartbeat CPU 0 instructions: 150000000 cycles: 43646662 heartbeat IPC: 3.474 cumulative IPC: 3.437 (Simulation time: 00 hr 04 min 33 sec)
Heartbeat CPU 0 instructions: 160000003 cycles: 46591871 heartbeat IPC: 3.395 cumulative IPC: 3.434 (Simulation time: 00 hr 04 min 52 sec)
Heartbeat CPU 0 instructions: 170000001 cycles: 49561164 heartbeat IPC: 3.368 cumulative IPC: 3.43 (Simulation time: 00 hr 05 min 11 sec)
Heartbeat CPU 0 instructions: 180000004 cycles: 52525043 heartbeat IPC: 3.374 cumulative IPC: 3.427 (Simulation time: 00 hr 05 min 30 sec)
Heartbeat CPU 0 instructions: 190000002 cycles: 55335947 heartbeat IPC: 3.558 cumulative IPC: 3.434 (Simulation time: 00 hr 05 min 50 sec)
Heartbeat CPU 0 instructions: 200000000 cycles: 58255853 heartbeat IPC: 3.425 cumulative IPC: 3.433 (Simulation time: 00 hr 06 min 08 sec)
Warmup finished CPU 0 instructions: 200000000 cycles: 58255854 cumulative IPC: 3.433 (Simulation time: 00 hr 06 min 08 sec)
Warmup complete CPU 0 instructions: 200000000 cycles: 58255854 cumulative IPC: 3.433 (Simulation time: 00 hr 06 min 08 sec)
Heartbeat CPU 0 instructions: 210000004 cycles: 77687696 heartbeat IPC: 0.5146 cumulative IPC: 0.5146 (Simulation time: 00 hr 07 min 22 sec)
Heartbeat CPU 0 instructions: 220000004 cycles: 99783929 heartbeat IPC: 0.4526 cumulative IPC: 0.4816 (Simulation time: 00 hr 08 min 47 sec)
Heartbeat CPU 0 instructions: 230000001 cycles: 121357974 heartbeat IPC: 0.4635 cumulative IPC: 0.4754 (Simulation time: 00 hr 10 min 12 sec)
Heartbeat CPU 0 instructions: 240000001 cycles: 141829007 heartbeat IPC: 0.4885 cumulative IPC: 0.4786 (Simulation time: 00 hr 11 min 33 sec)
Heartbeat CPU 0 instructions: 250000000 cycles: 153601037 heartbeat IPC: 0.8495 cumulative IPC: 0.5244 (Simulation time: 00 hr 12 min 30 sec)
Heartbeat CPU 0 instructions: 260000000 cycles: 166435494 heartbeat IPC: 0.7792 cumulative IPC: 0.5546 (Simulation time: 00 hr 13 min 30 sec)
Heartbeat CPU 0 instructions: 270000000 cycles: 187709987 heartbeat IPC: 0.47 cumulative IPC: 0.5407 (Simulation time: 00 hr 14 min 43 sec)
Heartbeat CPU 0 instructions: 280000000 cycles: 214369046 heartbeat IPC: 0.3751 cumulative IPC: 0.5124 (Simulation time: 00 hr 16 min 05 sec)
Heartbeat CPU 0 instructions: 290000001 cycles: 234949792 heartbeat IPC: 0.4859 cumulative IPC: 0.5094 (Simulation time: 00 hr 17 min 15 sec)
Heartbeat CPU 0 instructions: 300000001 cycles: 255653703 heartbeat IPC: 0.483 cumulative IPC: 0.5066 (Simulation time: 00 hr 18 min 33 sec)
Heartbeat CPU 0 instructions: 310000001 cycles: 280099499 heartbeat IPC: 0.4091 cumulative IPC: 0.4958 (Simulation time: 00 hr 20 min 06 sec)
Heartbeat CPU 0 instructions: 320000004 cycles: 308230971 heartbeat IPC: 0.3555 cumulative IPC: 0.48 (Simulation time: 00 hr 21 min 53 sec)
Heartbeat CPU 0 instructions: 330000002 cycles: 330720346 heartbeat IPC: 0.4447 cumulative IPC: 0.4771 (Simulation time: 00 hr 23 min 18 sec)
Heartbeat CPU 0 instructions: 340000001 cycles: 347274850 heartbeat IPC: 0.6041 cumulative IPC: 0.4844 (Simulation time: 00 hr 24 min 21 sec)
Heartbeat CPU 0 instructions: 350000004 cycles: 376112123 heartbeat IPC: 0.3468 cumulative IPC: 0.4719 (Simulation time: 00 hr 26 min 11 sec)
Heartbeat CPU 0 instructions: 360000000 cycles: 403664246 heartbeat IPC: 0.3629 cumulative IPC: 0.4632 (Simulation time: 00 hr 27 min 56 sec)
Heartbeat CPU 0 instructions: 370000000 cycles: 425487545 heartbeat IPC: 0.4582 cumulative IPC: 0.4629 (Simulation time: 00 hr 29 min 16 sec)
Heartbeat CPU 0 instructions: 380000000 cycles: 446353090 heartbeat IPC: 0.4793 cumulative IPC: 0.4638 (Simulation time: 00 hr 30 min 32 sec)
Heartbeat CPU 0 instructions: 390000000 cycles: 469533755 heartbeat IPC: 0.4314 cumulative IPC: 0.462 (Simulation time: 00 hr 31 min 55 sec)
Heartbeat CPU 0 instructions: 400000001 cycles: 494363339 heartbeat IPC: 0.4027 cumulative IPC: 0.4586 (Simulation time: 00 hr 33 min 22 sec)
Heartbeat CPU 0 instructions: 410000001 cycles: 512155872 heartbeat IPC: 0.562 cumulative IPC: 0.4627 (Simulation time: 00 hr 34 min 27 sec)
Heartbeat CPU 0 instructions: 420000002 cycles: 530240047 heartbeat IPC: 0.553 cumulative IPC: 0.4661 (Simulation time: 00 hr 35 min 32 sec)
Heartbeat CPU 0 instructions: 430000001 cycles: 554429306 heartbeat IPC: 0.4134 cumulative IPC: 0.4635 (Simulation time: 00 hr 36 min 56 sec)
Heartbeat CPU 0 instructions: 440000002 cycles: 577631168 heartbeat IPC: 0.431 cumulative IPC: 0.4621 (Simulation time: 00 hr 38 min 16 sec)
Heartbeat CPU 0 instructions: 450000000 cycles: 598845083 heartbeat IPC: 0.4714 cumulative IPC: 0.4625 (Simulation time: 00 hr 39 min 30 sec)
Heartbeat CPU 0 instructions: 460000000 cycles: 613983547 heartbeat IPC: 0.6606 cumulative IPC: 0.4679 (Simulation time: 00 hr 40 min 26 sec)
Heartbeat CPU 0 instructions: 470000002 cycles: 633264157 heartbeat IPC: 0.5187 cumulative IPC: 0.4696 (Simulation time: 00 hr 41 min 34 sec)
Heartbeat CPU 0 instructions: 480000000 cycles: 662096380 heartbeat IPC: 0.3468 cumulative IPC: 0.4637 (Simulation time: 00 hr 43 min 15 sec)
Heartbeat CPU 0 instructions: 490000000 cycles: 685233775 heartbeat IPC: 0.4322 cumulative IPC: 0.4625 (Simulation time: 00 hr 44 min 38 sec)
Heartbeat CPU 0 instructions: 500000000 cycles: 707179055 heartbeat IPC: 0.4557 cumulative IPC: 0.4623 (Simulation time: 00 hr 45 min 55 sec)
Heartbeat CPU 0 instructions: 510000000 cycles: 729534790 heartbeat IPC: 0.4473 cumulative IPC: 0.4618 (Simulation time: 00 hr 47 min 13 sec)
Heartbeat CPU 0 instructions: 520000000 cycles: 757084512 heartbeat IPC: 0.363 cumulative IPC: 0.4579 (Simulation time: 00 hr 48 min 49 sec)
Heartbeat CPU 0 instructions: 530000001 cycles: 776955154 heartbeat IPC: 0.5033 cumulative IPC: 0.4592 (Simulation time: 00 hr 50 min 00 sec)
Heartbeat CPU 0 instructions: 540000003 cycles: 792241294 heartbeat IPC: 0.6542 cumulative IPC: 0.4632 (Simulation time: 00 hr 50 min 57 sec)
Heartbeat CPU 0 instructions: 550000004 cycles: 818198665 heartbeat IPC: 0.3852 cumulative IPC: 0.4606 (Simulation time: 00 hr 52 min 28 sec)
Heartbeat CPU 0 instructions: 560000004 cycles: 839896464 heartbeat IPC: 0.4609 cumulative IPC: 0.4606 (Simulation time: 00 hr 53 min 43 sec)
Heartbeat CPU 0 instructions: 570000003 cycles: 858489813 heartbeat IPC: 0.5378 cumulative IPC: 0.4624 (Simulation time: 00 hr 54 min 49 sec)
Heartbeat CPU 0 instructions: 580000001 cycles: 885511391 heartbeat IPC: 0.3701 cumulative IPC: 0.4594 (Simulation time: 00 hr 56 min 22 sec)
Heartbeat CPU 0 instructions: 590000001 cycles: 907866603 heartbeat IPC: 0.4473 cumulative IPC: 0.459 (Simulation time: 00 hr 57 min 40 sec)
Heartbeat CPU 0 instructions: 600000001 cycles: 930813325 heartbeat IPC: 0.4358 cumulative IPC: 0.4584 (Simulation time: 00 hr 58 min 59 sec)
Heartbeat CPU 0 instructions: 610000004 cycles: 951146400 heartbeat IPC: 0.4918 cumulative IPC: 0.4592 (Simulation time: 01 hr 00 min 09 sec)
Heartbeat CPU 0 instructions: 620000002 cycles: 973881225 heartbeat IPC: 0.4399 cumulative IPC: 0.4587 (Simulation time: 01 hr 01 min 28 sec)
Heartbeat CPU 0 instructions: 630000000 cycles: 995354542 heartbeat IPC: 0.4657 cumulative IPC: 0.4589 (Simulation time: 01 hr 02 min 42 sec)
Heartbeat CPU 0 instructions: 640000000 cycles: 1023035295 heartbeat IPC: 0.3613 cumulative IPC: 0.4561 (Simulation time: 01 hr 04 min 16 sec)
Heartbeat CPU 0 instructions: 650000001 cycles: 1041350787 heartbeat IPC: 0.546 cumulative IPC: 0.4577 (Simulation time: 01 hr 05 min 21 sec)
Heartbeat CPU 0 instructions: 660000002 cycles: 1059356145 heartbeat IPC: 0.5554 cumulative IPC: 0.4595 (Simulation time: 01 hr 06 min 24 sec)
Heartbeat CPU 0 instructions: 670000003 cycles: 1082266323 heartbeat IPC: 0.4365 cumulative IPC: 0.459 (Simulation time: 01 hr 07 min 43 sec)
Heartbeat CPU 0 instructions: 680000000 cycles: 1099233994 heartbeat IPC: 0.5894 cumulative IPC: 0.4611 (Simulation time: 01 hr 08 min 44 sec)
Heartbeat CPU 0 instructions: 690000002 cycles: 1123079404 heartbeat IPC: 0.4194 cumulative IPC: 0.4602 (Simulation time: 01 hr 10 min 08 sec)
Heartbeat CPU 0 instructions: 700000000 cycles: 1146406831 heartbeat IPC: 0.4287 cumulative IPC: 0.4595 (Simulation time: 01 hr 11 min 30 sec)
Simulation finished CPU 0 instructions: 500000000 cycles: 1088150978 cumulative IPC: 0.4595 (Simulation time: 01 hr 11 min 30 sec)
Simulation complete CPU 0 instructions: 500000000 cycles: 1088150978 cumulative IPC: 0.4595 (Simulation time: 01 hr 11 min 30 sec)

ChampSim completed all CPUs

=== Simulation ===
CPU 0 runs /home/anishk/Downloads/605.mcf_s-472B.champsimtrace.xz
Region of Interest Statistics

CPU 0 cumulative IPC: 0.4595 instructions: 500000000 cycles: 1088150978
CPU 0 Branch Prediction Accuracy: 97.59% MPKI: 3.313 Average ROB Occupancy at Mispredict: 107.4
Branch type MPKI
BRANCH_DIRECT_JUMP: 0
BRANCH_INDIRECT: 0
BRANCH_CONDITIONAL: 3.31
BRANCH_DIRECT_CALL: 2e-06
BRANCH_INDIRECT_CALL: 0
BRANCH_RETURN: 2e-06

LLC TOTAL        ACCESS:   29664355 HIT:    2130844 MISS:   27533511
LLC LOAD         ACCESS:   26366943 HIT:      17674 MISS:   26349269
LLC RFO          ACCESS:    1145438 HIT:        435 MISS:    1145003
LLC PREFETCH     ACCESS:          0 HIT:          0 MISS:          0
LLC WRITE        ACCESS:    2114692 HIT:    2107556 MISS:       7136
LLC TRANSLATION  ACCESS:      37282 HIT:       5179 MISS:      32103
LLC PREFETCH REQUESTED:          0 ISSUED:          0 USEFUL:          0 USELESS:          0
LLC AVERAGE MISS LATENCY: 372.6 cycles
cpu0_DTLB TOTAL        ACCESS:  145895885 HIT:  139939226 MISS:    5956659
cpu0_DTLB LOAD         ACCESS:  145895885 HIT:  139939226 MISS:    5956659
cpu0_DTLB RFO          ACCESS:          0 HIT:          0 MISS:          0
cpu0_DTLB PREFETCH     ACCESS:          0 HIT:          0 MISS:          0
cpu0_DTLB WRITE        ACCESS:          0 HIT:          0 MISS:          0
cpu0_DTLB TRANSLATION  ACCESS:          0 HIT:          0 MISS:          0
cpu0_DTLB PREFETCH REQUESTED:          0 ISSUED:          0 USEFUL:          0 USELESS:          0
cpu0_DTLB AVERAGE MISS LATENCY: 9.691 cycles
cpu0_ITLB TOTAL        ACCESS:         16 HIT:         16 MISS:          0
cpu0_ITLB LOAD         ACCESS:         16 HIT:         16 MISS:          0
cpu0_ITLB RFO          ACCESS:          0 HIT:          0 MISS:          0
cpu0_ITLB PREFETCH     ACCESS:          0 HIT:          0 MISS:          0
cpu0_ITLB WRITE        ACCESS:          0 HIT:          0 MISS:          0
cpu0_ITLB TRANSLATION  ACCESS:          0 HIT:          0 MISS:          0
cpu0_ITLB PREFETCH REQUESTED:          0 ISSUED:          0 USEFUL:          0 USELESS:          0
cpu0_ITLB AVERAGE MISS LATENCY: -nan cycles
cpu0_L1D TOTAL        ACCESS:  209635102 HIT:  174304389 MISS:   35330713
cpu0_L1D LOAD         ACCESS:  104251535 HIT:   74299983 MISS:   29951552
cpu0_L1D RFO          ACCESS:          0 HIT:          0 MISS:          0
cpu0_L1D PREFETCH     ACCESS:          0 HIT:          0 MISS:          0
cpu0_L1D WRITE        ACCESS:  104710095 HIT:   99471756 MISS:    5238339
cpu0_L1D TRANSLATION  ACCESS:     673472 HIT:     532650 MISS:     140822
cpu0_L1D PREFETCH REQUESTED:          0 ISSUED:          0 USEFUL:          0 USELESS:          0
cpu0_L1D AVERAGE MISS LATENCY: 312.6 cycles
cpu0_L1I TOTAL        ACCESS:         19 HIT:          5 MISS:         14
cpu0_L1I LOAD         ACCESS:         19 HIT:          5 MISS:         14
cpu0_L1I RFO          ACCESS:          0 HIT:          0 MISS:          0
cpu0_L1I PREFETCH     ACCESS:          0 HIT:          0 MISS:          0
cpu0_L1I WRITE        ACCESS:          0 HIT:          0 MISS:          0
cpu0_L1I TRANSLATION  ACCESS:          0 HIT:          0 MISS:          0
cpu0_L1I PREFETCH REQUESTED:          0 ISSUED:          0 USEFUL:          0 USELESS:          0
cpu0_L1I AVERAGE MISS LATENCY: 146.1 cycles
cpu0_L2C TOTAL        ACCESS:   30446298 HIT:    2886127 MISS:   27560171
cpu0_L2C LOAD         ACCESS:   26667574 HIT:     300629 MISS:   26366945
cpu0_L2C RFO          ACCESS:    1230535 HIT:      85097 MISS:    1145438
cpu0_L2C PREFETCH     ACCESS:          0 HIT:          0 MISS:          0
cpu0_L2C WRITE        ACCESS:    2407597 HIT:    2397091 MISS:      10506
cpu0_L2C TRANSLATION  ACCESS:     140592 HIT:     103310 MISS:      37282
cpu0_L2C PREFETCH REQUESTED:          0 ISSUED:          0 USEFUL:          0 USELESS:          0
cpu0_L2C AVERAGE MISS LATENCY: 393.2 cycles
cpu0_STLB TOTAL        ACCESS:    1807518 HIT:    1135050 MISS:     672468
cpu0_STLB LOAD         ACCESS:    1807518 HIT:    1135050 MISS:     672468
cpu0_STLB RFO          ACCESS:          0 HIT:          0 MISS:          0
cpu0_STLB PREFETCH     ACCESS:          0 HIT:          0 MISS:          0
cpu0_STLB WRITE        ACCESS:          0 HIT:          0 MISS:          0
cpu0_STLB TRANSLATION  ACCESS:          0 HIT:          0 MISS:          0
cpu0_STLB PREFETCH REQUESTED:          0 ISSUED:          0 USEFUL:          0 USELESS:          0
cpu0_STLB AVERAGE MISS LATENCY: 179.8 cycles

DRAM Statistics

Channel 0 RQ ROW_BUFFER_HIT:   19002160
  ROW_BUFFER_MISS:    8523348
 AVG DBUS CONGESTED CYCLE: 3.958
WQ ROW_BUFFER_HIT: Channel 0 
  ROW_BUFFER_MISS:     268016
  FULL:    1832713
[?2004h]0;anishk@wellsfargo-OptiPlex-5090: ~/ChampSim[01;32manishk@wellsfargo-OptiPlex-5090[00m:[01;34m~/ChampSim[00m$ [K]0;anishk@wellsfargo-OptiPlex-5090: ~/ChampSim[01;32manishk@wellsfargo-OptiPlex-5090[00m:[01;34m~/ChampSim[00m$ bin/champsim --warmup_instructions 200000000 --simulation_instructions 500000000 ~/Downloads/605.mcf_s-472B.champsimtrace.xz2.gcc_s-2226B.champsimtrace.xz >>gtrace1.txt[A]0;anishk@wellsfargo-OptiPlex-5090: ~/ChampSim[01;32manishk@wellsfargo-OptiPlex-5090[00m:[01;34m~/ChampSim[00m$ make[K
[K[A[C[C[C[C[C[C[C[C[C[C[C[C[C[C[C[C[C[C[C[C[C[C[C[C[C[C[C[C[C[C[C[C[C[C[C[C[C[C[C[C[C[C[C[C[C[C[C[C./config.sh champsim_config.json
[?2004l[?2004h]0;anishk@wellsfargo-OptiPlex-5090: ~/ChampSim[01;32manishk@wellsfargo-OptiPlex-5090[00m:[01;34m~/ChampSim[00m$ ./config.sh champsim_config.jsonbin/champsim --warmup_instructions 200000000 --simulation_instructions 500000000 ~/Downloads/605.mcf_s-472B.champsimtrace.xz2.gcc_s-2226B.champsimtrace.xz >>gtrace1.txt[A]0;anishk@wellsfargo-OptiPlex-5090: ~/ChampSim[01;32manishk@wellsfargo-OptiPlex-5090[00m:[01;34m~/ChampSim[00m$ make[K
[K[A[C[C[C[C[C[C[C[C[C[C[C[C[C[C[C[C[C[C[C[C[C[C[C[C[C[C[C[C[C[C[C[C[C[C[C[C[C[C[C[C[C[C[C[C[C[C[C[C
[?2004lmkdir /home/anishk/ChampSim/.csconfig/10b654df/obj
g++ --std=c++17 -O3 -Wall -Wextra -Wshadow -Wpedantic -MMD -I/home/anishk/ChampSim/inc -isystem /home/anishk/ChampSim/vcpkg_installed/x64-linux/include -I/home/anishk/ChampSim/src -I/home/anishk/ChampSim/.csconfig/10b654df/inc  -c -o /home/anishk/ChampSim/.csconfig/10b654df/obj/cache.o /home/anishk/ChampSim/src/cache.cc
g++ --std=c++17 -O3 -Wall -Wextra -Wshadow -Wpedantic -MMD -I/home/anishk/ChampSim/inc -isystem /home/anishk/ChampSim/vcpkg_installed/x64-linux/include -I/home/anishk/ChampSim/src -I/home/anishk/ChampSim/.csconfig/10b654df/inc  -c -o /home/anishk/ChampSim/.csconfig/10b654df/obj/champsim.o /home/anishk/ChampSim/src/champsim.cc
g++ --std=c++17 -O3 -Wall -Wextra -Wshadow -Wpedantic -MMD -I/home/anishk/ChampSim/inc -isystem /home/anishk/ChampSim/vcpkg_installed/x64-linux/include -I/home/anishk/ChampSim/src -I/home/anishk/ChampSim/.csconfig/10b654df/inc  -c -o /home/anishk/ChampSim/.csconfig/10b654df/obj/channel.o /home/anishk/ChampSim/src/channel.cc
g++ --std=c++17 -O3 -Wall -Wextra -Wshadow -Wpedantic -MMD -I/home/anishk/ChampSim/inc -isystem /home/anishk/ChampSim/vcpkg_installed/x64-linux/include -I/home/anishk/ChampSim/src -I/home/anishk/ChampSim/.csconfig/10b654df/inc  -c -o /home/anishk/ChampSim/.csconfig/10b654df/obj/dram_controller.o /home/anishk/ChampSim/src/dram_controller.cc
g++ --std=c++17 -O3 -Wall -Wextra -Wshadow -Wpedantic -MMD -I/home/anishk/ChampSim/inc -isystem /home/anishk/ChampSim/vcpkg_installed/x64-linux/include -I/home/anishk/ChampSim/src -I/home/anishk/ChampSim/.csconfig/10b654df/inc  -c -o /home/anishk/ChampSim/.csconfig/10b654df/obj/json_printer.o /home/anishk/ChampSim/src/json_printer.cc
g++ --std=c++17 -O3 -Wall -Wextra -Wshadow -Wpedantic -MMD -I/home/anishk/ChampSim/inc -isystem /home/anishk/ChampSim/vcpkg_installed/x64-linux/include -I/home/anishk/ChampSim/src -I/home/anishk/ChampSim/.csconfig/10b654df/inc  -c -o /home/anishk/ChampSim/.csconfig/10b654df/obj/main.o /home/anishk/ChampSim/src/main.cc
g++ --std=c++17 -O3 -Wall -Wextra -Wshadow -Wpedantic -MMD -I/home/anishk/ChampSim/inc -isystem /home/anishk/ChampSim/vcpkg_installed/x64-linux/include -I/home/anishk/ChampSim/src -I/home/anishk/ChampSim/.csconfig/10b654df/inc  -c -o /home/anishk/ChampSim/.csconfig/10b654df/obj/ooo_cpu.o /home/anishk/ChampSim/src/ooo_cpu.cc
g++ --std=c++17 -O3 -Wall -Wextra -Wshadow -Wpedantic -MMD -I/home/anishk/ChampSim/inc -isystem /home/anishk/ChampSim/vcpkg_installed/x64-linux/include -I/home/anishk/ChampSim/src -I/home/anishk/ChampSim/.csconfig/10b654df/inc  -c -o /home/anishk/ChampSim/.csconfig/10b654df/obj/plain_printer.o /home/anishk/ChampSim/src/plain_printer.cc
g++ --std=c++17 -O3 -Wall -Wextra -Wshadow -Wpedantic -MMD -I/home/anishk/ChampSim/inc -isystem /home/anishk/ChampSim/vcpkg_installed/x64-linux/include -I/home/anishk/ChampSim/src -I/home/anishk/ChampSim/.csconfig/10b654df/inc  -c -o /home/anishk/ChampSim/.csconfig/10b654df/obj/ptw.o /home/anishk/ChampSim/src/ptw.cc
g++ --std=c++17 -O3 -Wall -Wextra -Wshadow -Wpedantic -MMD -I/home/anishk/ChampSim/inc -isystem /home/anishk/ChampSim/vcpkg_installed/x64-linux/include -I/home/anishk/ChampSim/src -I/home/anishk/ChampSim/.csconfig/10b654df/inc  -c -o /home/anishk/ChampSim/.csconfig/10b654df/obj/tracereader.o /home/anishk/ChampSim/src/tracereader.cc
g++ --std=c++17 -O3 -Wall -Wextra -Wshadow -Wpedantic -MMD -I/home/anishk/ChampSim/inc -isystem /home/anishk/ChampSim/vcpkg_installed/x64-linux/include -I/home/anishk/ChampSim/src -I/home/anishk/ChampSim/.csconfig/10b654df/inc  -c -o /home/anishk/ChampSim/.csconfig/10b654df/obj/vmem.o /home/anishk/ChampSim/src/vmem.cc
mkdir /home/anishk/ChampSim/.csconfig/10b654df/btbDbasic_btb
g++ --std=c++17 -O3 -Wall -Wextra -Wshadow -Wpedantic -Wno-unused-parameter -MMD -I/home/anishk/ChampSim/inc -isystem /home/anishk/ChampSim/vcpkg_installed/x64-linux/include -I/home/anishk/ChampSim/btb/basic_btb -DCHAMPSIM_MODULE -I/home/anishk/ChampSim/.csconfig/10b654df/inc -include btbDbasic_btb.inc  -c -o /home/anishk/ChampSim/.csconfig/10b654df/btbDbasic_btb/basic_btb.o /home/anishk/ChampSim/btb/basic_btb/basic_btb.cc
mkdir /home/anishk/ChampSim/.csconfig/10b654df/branchDperceptron
g++ --std=c++17 -O3 -Wall -Wextra -Wshadow -Wpedantic -Wno-unused-parameter -MMD -I/home/anishk/ChampSim/inc -isystem /home/anishk/ChampSim/vcpkg_installed/x64-linux/include -I/home/anishk/ChampSim/branch/perceptron -DCHAMPSIM_MODULE -I/home/anishk/ChampSim/.csconfig/10b654df/inc -include branchDperceptron.inc  -c -o /home/anishk/ChampSim/.csconfig/10b654df/branchDperceptron/perceptron.o /home/anishk/ChampSim/branch/perceptron/perceptron.cc
mkdir /home/anishk/ChampSim/.csconfig/10b654df/prefetcherDno
g++ --std=c++17 -O3 -Wall -Wextra -Wshadow -Wpedantic -Wno-unused-parameter -MMD -I/home/anishk/ChampSim/inc -isystem /home/anishk/ChampSim/vcpkg_installed/x64-linux/include -I/home/anishk/ChampSim/prefetcher/no -DCHAMPSIM_MODULE -I/home/anishk/ChampSim/.csconfig/10b654df/inc -include prefetcherDno.inc  -c -o /home/anishk/ChampSim/.csconfig/10b654df/prefetcherDno/no.o /home/anishk/ChampSim/prefetcher/no/no.cc
mkdir /home/anishk/ChampSim/.csconfig/10b654df/prefetcherDno_instr
g++ --std=c++17 -O3 -Wall -Wextra -Wshadow -Wpedantic -Wno-unused-parameter -MMD -I/home/anishk/ChampSim/inc -isystem /home/anishk/ChampSim/vcpkg_installed/x64-linux/include -I/home/anishk/ChampSim/prefetcher/no_instr -DCHAMPSIM_MODULE -I/home/anishk/ChampSim/.csconfig/10b654df/inc -include prefetcherDno_instr.inc  -c -o /home/anishk/ChampSim/.csconfig/10b654df/prefetcherDno_instr/no.o /home/anishk/ChampSim/prefetcher/no_instr/no.cc
mkdir /home/anishk/ChampSim/.csconfig/10b654df/replacementDlru
g++ --std=c++17 -O3 -Wall -Wextra -Wshadow -Wpedantic -Wno-unused-parameter -MMD -I/home/anishk/ChampSim/inc -isystem /home/anishk/ChampSim/vcpkg_installed/x64-linux/include -I/home/anishk/ChampSim/replacement/lru -DCHAMPSIM_MODULE -I/home/anishk/ChampSim/.csconfig/10b654df/inc -include replacementDlru.inc  -c -o /home/anishk/ChampSim/.csconfig/10b654df/replacementDlru/lru.o /home/anishk/ChampSim/replacement/lru/lru.cc
g++ --std=c++17 -O3 -Wall -Wextra -Wshadow -Wpedantic -MMD -I/home/anishk/ChampSim/inc -isystem /home/anishk/ChampSim/vcpkg_installed/x64-linux/include -L/home/anishk/ChampSim/vcpkg_installed/x64-linux/lib -L/home/anishk/ChampSim/vcpkg_installed/x64-linux/lib/manual-link  -L/home/anishk/ChampSim/vcpkg_installed/x64-linux/lib -L/home/anishk/ChampSim/vcpkg_installed/x64-linux/lib/manual-link -o /home/anishk/ChampSim/bin/champsim /home/anishk/ChampSim/.csconfig/10b654df/obj/cache.o /home/anishk/ChampSim/.csconfig/10b654df/obj/champsim.o /home/anishk/ChampSim/.csconfig/10b654df/obj/channel.o /home/anishk/ChampSim/.csconfig/10b654df/obj/dram_controller.o /home/anishk/ChampSim/.csconfig/10b654df/obj/json_printer.o /home/anishk/ChampSim/.csconfig/10b654df/obj/main.o /home/anishk/ChampSim/.csconfig/10b654df/obj/ooo_cpu.o /home/anishk/ChampSim/.csconfig/10b654df/obj/plain_printer.o /home/anishk/ChampSim/.csconfig/10b654df/obj/ptw.o /home/anishk/ChampSim/.csconfig/10b654df/obj/tracereader.o /home/anishk/ChampSim/.csconfig/10b654df/obj/vmem.o /home/anishk/ChampSim/.csconfig/10b654df/btbDbasic_btb/basic_btb.o /home/anishk/ChampSim/.csconfig/10b654df/branchDperceptron/perceptron.o /home/anishk/ChampSim/.csconfig/10b654df/prefetcherDno/no.o /home/anishk/ChampSim/.csconfig/10b654df/prefetcherDno_instr/no.o /home/anishk/ChampSim/.csconfig/10b654df/replacementDlru/lru.o  -llzma -lz -lbz2 -lfmt
[?2004h]0;anishk@wellsfargo-OptiPlex-5090: ~/ChampSim[01;32manishk@wellsfargo-OptiPlex-5090[00m:[01;34m~/ChampSim[00m$ make./config.sh champsim_config.jsonbin/champsim --warmup_instructions 200000000 --simulation_instructions 500000000 ~/Downloads/605.mcf_s-472B.champsimtrace.xz
[?2004lWARNING: physical memory size is smaller than virtual memory size.
WARNING: option --warmup_instructions is deprecated. Use --warmup-instructions instead.
WARNING: option --simulation_instructions is deprecated. Use --simulation-instructions instead.

*** ChampSim Multicore Out-of-Order Simulator ***
Warmup Instructions: 200000000
Simulation Instructions: 500000000
Number of CPUs: 1
Page size: 4096

Off-chip DRAM Size: 4 GiB Channels: 1 Width: 64-bit Data Race: 3200 MT/s
Heartbeat CPU 0 instructions: 10000003 cycles: 2991605 heartbeat IPC: 3.343 cumulative IPC: 3.343 (Simulation time: 00 hr 00 min 18 sec)
Heartbeat CPU 0 instructions: 20000002 cycles: 5823341 heartbeat IPC: 3.531 cumulative IPC: 3.434 (Simulation time: 00 hr 00 min 39 sec)
Heartbeat CPU 0 instructions: 30000003 cycles: 8581180 heartbeat IPC: 3.626 cumulative IPC: 3.496 (Simulation time: 00 hr 00 min 58 sec)
Heartbeat CPU 0 instructions: 40000002 cycles: 11571137 heartbeat IPC: 3.345 cumulative IPC: 3.457 (Simulation time: 00 hr 01 min 17 sec)
Heartbeat CPU 0 instructions: 50000002 cycles: 14505543 heartbeat IPC: 3.408 cumulative IPC: 3.447 (Simulation time: 00 hr 01 min 38 sec)
Heartbeat CPU 0 instructions: 60000004 cycles: 17431393 heartbeat IPC: 3.418 cumulative IPC: 3.442 (Simulation time: 00 hr 01 min 58 sec)
Heartbeat CPU 0 instructions: 70000001 cycles: 20384815 heartbeat IPC: 3.386 cumulative IPC: 3.434 (Simulation time: 00 hr 02 min 18 sec)
Heartbeat CPU 0 instructions: 80000000 cycles: 23214727 heartbeat IPC: 3.534 cumulative IPC: 3.446 (Simulation time: 00 hr 02 min 38 sec)
Heartbeat CPU 0 instructions: 90000003 cycles: 26173438 heartbeat IPC: 3.38 cumulative IPC: 3.439 (Simulation time: 00 hr 02 min 59 sec)
Heartbeat CPU 0 instructions: 100000000 cycles: 29045025 heartbeat IPC: 3.482 cumulative IPC: 3.443 (Simulation time: 00 hr 03 min 18 sec)
Heartbeat CPU 0 instructions: 110000004 cycles: 32045082 heartbeat IPC: 3.333 cumulative IPC: 3.433 (Simulation time: 00 hr 03 min 38 sec)
Heartbeat CPU 0 instructions: 120000004 cycles: 34969386 heartbeat IPC: 3.42 cumulative IPC: 3.432 (Simulation time: 00 hr 03 min 58 sec)
Heartbeat CPU 0 instructions: 130000000 cycles: 37888827 heartbeat IPC: 3.425 cumulative IPC: 3.431 (Simulation time: 00 hr 04 min 18 sec)
Heartbeat CPU 0 instructions: 140000001 cycles: 40768010 heartbeat IPC: 3.473 cumulative IPC: 3.434 (Simulation time: 00 hr 04 min 38 sec)
Heartbeat CPU 0 instructions: 150000000 cycles: 43646619 heartbeat IPC: 3.474 cumulative IPC: 3.437 (Simulation time: 00 hr 04 min 58 sec)
Heartbeat CPU 0 instructions: 160000003 cycles: 46591876 heartbeat IPC: 3.395 cumulative IPC: 3.434 (Simulation time: 00 hr 05 min 17 sec)
Heartbeat CPU 0 instructions: 170000001 cycles: 49561179 heartbeat IPC: 3.368 cumulative IPC: 3.43 (Simulation time: 00 hr 05 min 37 sec)
Heartbeat CPU 0 instructions: 180000004 cycles: 52525033 heartbeat IPC: 3.374 cumulative IPC: 3.427 (Simulation time: 00 hr 05 min 57 sec)
Heartbeat CPU 0 instructions: 190000002 cycles: 55335947 heartbeat IPC: 3.558 cumulative IPC: 3.434 (Simulation time: 00 hr 06 min 18 sec)
Heartbeat CPU 0 instructions: 200000000 cycles: 58255803 heartbeat IPC: 3.425 cumulative IPC: 3.433 (Simulation time: 00 hr 06 min 39 sec)
Warmup finished CPU 0 instructions: 200000000 cycles: 58255804 cumulative IPC: 3.433 (Simulation time: 00 hr 06 min 39 sec)
Warmup complete CPU 0 instructions: 200000000 cycles: 58255804 cumulative IPC: 3.433 (Simulation time: 00 hr 06 min 39 sec)
Heartbeat CPU 0 instructions: 210000004 cycles: 77166464 heartbeat IPC: 0.5288 cumulative IPC: 0.5288 (Simulation time: 00 hr 08 min 06 sec)
Heartbeat CPU 0 instructions: 220000004 cycles: 98721802 heartbeat IPC: 0.4639 cumulative IPC: 0.4942 (Simulation time: 00 hr 09 min 42 sec)
Heartbeat CPU 0 instructions: 230000001 cycles: 119771831 heartbeat IPC: 0.4751 cumulative IPC: 0.4877 (Simulation time: 00 hr 11 min 24 sec)
Heartbeat CPU 0 instructions: 240000001 cycles: 139879862 heartbeat IPC: 0.4973 cumulative IPC: 0.4901 (Simulation time: 00 hr 13 min 07 sec)
Heartbeat CPU 0 instructions: 250000000 cycles: 151513082 heartbeat IPC: 0.8596 cumulative IPC: 0.5362 (Simulation time: 00 hr 14 min 20 sec)
Heartbeat CPU 0 instructions: 260000000 cycles: 163826148 heartbeat IPC: 0.8121 cumulative IPC: 0.5683 (Simulation time: 00 hr 15 min 37 sec)
Heartbeat CPU 0 instructions: 270000000 cycles: 182271854 heartbeat IPC: 0.5421 cumulative IPC: 0.5644 (Simulation time: 00 hr 17 min 07 sec)
Heartbeat CPU 0 instructions: 280000000 cycles: 204465465 heartbeat IPC: 0.4506 cumulative IPC: 0.5472 (Simulation time: 00 hr 18 min 44 sec)
Heartbeat CPU 0 instructions: 290000001 cycles: 222328698 heartbeat IPC: 0.5598 cumulative IPC: 0.5485 (Simulation time: 00 hr 20 min 07 sec)
Heartbeat CPU 0 instructions: 300000001 cycles: 242509104 heartbeat IPC: 0.4955 cumulative IPC: 0.5427 (Simulation time: 00 hr 21 min 46 sec)
Heartbeat CPU 0 instructions: 310000001 cycles: 266428202 heartbeat IPC: 0.4181 cumulative IPC: 0.5284 (Simulation time: 00 hr 23 min 41 sec)
Heartbeat CPU 0 instructions: 320000001 cycles: 293886790 heartbeat IPC: 0.3642 cumulative IPC: 0.5093 (Simulation time: 00 hr 25 min 53 sec)
Heartbeat CPU 0 instructions: 330000002 cycles: 315821973 heartbeat IPC: 0.4559 cumulative IPC: 0.5047 (Simulation time: 00 hr 27 min 41 sec)
Heartbeat CPU 0 instructions: 340000001 cycles: 331951258 heartbeat IPC: 0.62 cumulative IPC: 0.5115 (Simulation time: 00 hr 29 min 03 sec)
Heartbeat CPU 0 instructions: 350000004 cycles: 360162658 heartbeat IPC: 0.3545 cumulative IPC: 0.4968 (Simulation time: 00 hr 31 min 12 sec)
Heartbeat CPU 0 instructions: 360000000 cycles: 387099665 heartbeat IPC: 0.3712 cumulative IPC: 0.4866 (Simulation time: 00 hr 33 min 12 sec)
Heartbeat CPU 0 instructions: 370000000 cycles: 408352648 heartbeat IPC: 0.4705 cumulative IPC: 0.4856 (Simulation time: 00 hr 34 min 51 sec)
Heartbeat CPU 0 instructions: 380000000 cycles: 428747745 heartbeat IPC: 0.4903 cumulative IPC: 0.4858 (Simulation time: 00 hr 36 min 24 sec)
Heartbeat CPU 0 instructions: 390000000 cycles: 451391722 heartbeat IPC: 0.4416 cumulative IPC: 0.4833 (Simulation time: 00 hr 38 min 01 sec)
Heartbeat CPU 0 instructions: 400000002 cycles: 475580965 heartbeat IPC: 0.4134 cumulative IPC: 0.4792 (Simulation time: 00 hr 39 min 42 sec)
Heartbeat CPU 0 instructions: 410000001 cycles: 492880497 heartbeat IPC: 0.5781 cumulative IPC: 0.4832 (Simulation time: 00 hr 40 min 57 sec)
Heartbeat CPU 0 instructions: 420000002 cycles: 510448292 heartbeat IPC: 0.5692 cumulative IPC: 0.4865 (Simulation time: 00 hr 42 min 15 sec)
Heartbeat CPU 0 instructions: 430000001 cycles: 533987449 heartbeat IPC: 0.4248 cumulative IPC: 0.4835 (Simulation time: 00 hr 43 min 58 sec)
Heartbeat CPU 0 instructions: 440000002 cycles: 556570576 heartbeat IPC: 0.4428 cumulative IPC: 0.4816 (Simulation time: 00 hr 45 min 35 sec)
Heartbeat CPU 0 instructions: 450000000 cycles: 577239917 heartbeat IPC: 0.4838 cumulative IPC: 0.4817 (Simulation time: 00 hr 47 min 08 sec)
Heartbeat CPU 0 instructions: 460000000 cycles: 591962446 heartbeat IPC: 0.6792 cumulative IPC: 0.4872 (Simulation time: 00 hr 48 min 15 sec)
Heartbeat CPU 0 instructions: 470000002 cycles: 610678799 heartbeat IPC: 0.5343 cumulative IPC: 0.4888 (Simulation time: 00 hr 49 min 37 sec)
Heartbeat CPU 0 instructions: 480000004 cycles: 638758370 heartbeat IPC: 0.3561 cumulative IPC: 0.4823 (Simulation time: 00 hr 51 min 37 sec)
Heartbeat CPU 0 instructions: 490000000 cycles: 661302609 heartbeat IPC: 0.4436 cumulative IPC: 0.4809 (Simulation time: 00 hr 53 min 12 sec)
Heartbeat CPU 0 instructions: 500000000 cycles: 682698597 heartbeat IPC: 0.4674 cumulative IPC: 0.4804 (Simulation time: 00 hr 54 min 45 sec)
Heartbeat CPU 0 instructions: 510000000 cycles: 704460198 heartbeat IPC: 0.4595 cumulative IPC: 0.4797 (Simulation time: 00 hr 56 min 17 sec)
Heartbeat CPU 0 instructions: 520000000 cycles: 731293552 heartbeat IPC: 0.3727 cumulative IPC: 0.4755 (Simulation time: 00 hr 58 min 05 sec)
Heartbeat CPU 0 instructions: 530000001 cycles: 750688259 heartbeat IPC: 0.5156 cumulative IPC: 0.4766 (Simulation time: 00 hr 59 min 23 sec)
Heartbeat CPU 0 instructions: 540000003 cycles: 765532892 heartbeat IPC: 0.6736 cumulative IPC: 0.4807 (Simulation time: 01 hr 00 min 24 sec)
Heartbeat CPU 0 instructions: 550000000 cycles: 790926191 heartbeat IPC: 0.3938 cumulative IPC: 0.4777 (Simulation time: 01 hr 02 min 01 sec)
Heartbeat CPU 0 instructions: 560000004 cycles: 811997844 heartbeat IPC: 0.4746 cumulative IPC: 0.4776 (Simulation time: 01 hr 03 min 26 sec)
Heartbeat CPU 0 instructions: 570000003 cycles: 830016493 heartbeat IPC: 0.555 cumulative IPC: 0.4794 (Simulation time: 01 hr 04 min 40 sec)
Heartbeat CPU 0 instructions: 580000001 cycles: 856404711 heartbeat IPC: 0.379 cumulative IPC: 0.4761 (Simulation time: 01 hr 06 min 24 sec)
Heartbeat CPU 0 instructions: 590000001 cycles: 878252109 heartbeat IPC: 0.4577 cumulative IPC: 0.4756 (Simulation time: 01 hr 07 min 45 sec)
Heartbeat CPU 0 instructions: 600000002 cycles: 900625836 heartbeat IPC: 0.447 cumulative IPC: 0.4749 (Simulation time: 01 hr 09 min 08 sec)
Heartbeat CPU 0 instructions: 610000004 cycles: 920336965 heartbeat IPC: 0.5073 cumulative IPC: 0.4756 (Simulation time: 01 hr 10 min 22 sec)
Heartbeat CPU 0 instructions: 620000002 cycles: 942438344 heartbeat IPC: 0.4525 cumulative IPC: 0.475 (Simulation time: 01 hr 11 min 47 sec)
Heartbeat CPU 0 instructions: 630000000 cycles: 963388844 heartbeat IPC: 0.4773 cumulative IPC: 0.4751 (Simulation time: 01 hr 13 min 05 sec)
Heartbeat CPU 0 instructions: 640000000 cycles: 990469287 heartbeat IPC: 0.3693 cumulative IPC: 0.472 (Simulation time: 01 hr 14 min 43 sec)
Heartbeat CPU 0 instructions: 650000001 cycles: 1008286350 heartbeat IPC: 0.5613 cumulative IPC: 0.4737 (Simulation time: 01 hr 15 min 51 sec)
Heartbeat CPU 0 instructions: 660000002 cycles: 1025782640 heartbeat IPC: 0.5715 cumulative IPC: 0.4754 (Simulation time: 01 hr 16 min 58 sec)
Heartbeat CPU 0 instructions: 670000004 cycles: 1048169317 heartbeat IPC: 0.4467 cumulative IPC: 0.4748 (Simulation time: 01 hr 18 min 21 sec)
Heartbeat CPU 0 instructions: 680000000 cycles: 1064589566 heartbeat IPC: 0.609 cumulative IPC: 0.477 (Simulation time: 01 hr 19 min 24 sec)
Heartbeat CPU 0 instructions: 690000002 cycles: 1087821800 heartbeat IPC: 0.4304 cumulative IPC: 0.4759 (Simulation time: 01 hr 20 min 51 sec)
Heartbeat CPU 0 instructions: 700000000 cycles: 1110512620 heartbeat IPC: 0.4407 cumulative IPC: 0.4752 (Simulation time: 01 hr 22 min 16 sec)
Simulation finished CPU 0 instructions: 500000000 cycles: 1052256817 cumulative IPC: 0.4752 (Simulation time: 01 hr 22 min 16 sec)
Simulation complete CPU 0 instructions: 500000000 cycles: 1052256817 cumulative IPC: 0.4752 (Simulation time: 01 hr 22 min 16 sec)

ChampSim completed all CPUs

=== Simulation ===
CPU 0 runs /home/anishk/Downloads/605.mcf_s-472B.champsimtrace.xz
Region of Interest Statistics

CPU 0 cumulative IPC: 0.4752 instructions: 500000000 cycles: 1052256817
CPU 0 Branch Prediction Accuracy: 98.5% MPKI: 2.056 Average ROB Occupancy at Mispredict: 113
Branch type MPKI
BRANCH_DIRECT_JUMP: 0
BRANCH_INDIRECT: 0
BRANCH_CONDITIONAL: 2.06
BRANCH_DIRECT_CALL: 2e-06
BRANCH_INDIRECT_CALL: 0
BRANCH_RETURN: 2e-06

LLC TOTAL        ACCESS:   29664720 HIT:    2131345 MISS:   27533375
LLC LOAD         ACCESS:   26367276 HIT:      18004 MISS:   26349272
LLC RFO          ACCESS:    1145492 HIT:        492 MISS:    1145000
LLC PREFETCH     ACCESS:          0 HIT:          0 MISS:          0
LLC WRITE        ACCESS:    2114879 HIT:    2107777 MISS:       7102
LLC TRANSLATION  ACCESS:      37073 HIT:       5072 MISS:      32001
LLC PREFETCH REQUESTED:          0 ISSUED:          0 USEFUL:          0 USELESS:          0
LLC AVERAGE MISS LATENCY: 380.7 cycles
cpu0_DTLB TOTAL        ACCESS:  140498349 HIT:  134551600 MISS:    5946749
cpu0_DTLB LOAD         ACCESS:  140498349 HIT:  134551600 MISS:    5946749
cpu0_DTLB RFO          ACCESS:          0 HIT:          0 MISS:          0
cpu0_DTLB PREFETCH     ACCESS:          0 HIT:          0 MISS:          0
cpu0_DTLB WRITE        ACCESS:          0 HIT:          0 MISS:          0
cpu0_DTLB TRANSLATION  ACCESS:          0 HIT:          0 MISS:          0
cpu0_DTLB PREFETCH REQUESTED:          0 ISSUED:          0 USEFUL:          0 USELESS:          0
cpu0_DTLB AVERAGE MISS LATENCY: 9.953 cycles
cpu0_ITLB TOTAL        ACCESS:         18 HIT:         18 MISS:          0
cpu0_ITLB LOAD         ACCESS:         18 HIT:         18 MISS:          0
cpu0_ITLB RFO          ACCESS:          0 HIT:          0 MISS:          0
cpu0_ITLB PREFETCH     ACCESS:          0 HIT:          0 MISS:          0
cpu0_ITLB WRITE        ACCESS:          0 HIT:          0 MISS:          0
cpu0_ITLB TRANSLATION  ACCESS:          0 HIT:          0 MISS:          0
cpu0_ITLB PREFETCH REQUESTED:          0 ISSUED:          0 USEFUL:          0 USELESS:          0
cpu0_ITLB AVERAGE MISS LATENCY: -nan cycles
cpu0_L1D TOTAL        ACCESS:  203698608 HIT:  168867250 MISS:   34831358
cpu0_L1D LOAD         ACCESS:   95212529 HIT:   65752476 MISS:   29460053
cpu0_L1D RFO          ACCESS:          0 HIT:          0 MISS:          0
cpu0_L1D PREFETCH     ACCESS:          0 HIT:          0 MISS:          0
cpu0_L1D WRITE        ACCESS:  107812598 HIT:  102582102 MISS:    5230496
cpu0_L1D TRANSLATION  ACCESS:     673481 HIT:     532672 MISS:     140809
cpu0_L1D PREFETCH REQUESTED:          0 ISSUED:          0 USEFUL:          0 USELESS:          0
cpu0_L1D AVERAGE MISS LATENCY: 323.4 cycles
cpu0_L1I TOTAL        ACCESS:         20 HIT:          8 MISS:         12
cpu0_L1I LOAD         ACCESS:         20 HIT:          8 MISS:         12
cpu0_L1I RFO          ACCESS:          0 HIT:          0 MISS:          0
cpu0_L1I PREFETCH     ACCESS:          0 HIT:          0 MISS:          0
cpu0_L1I WRITE        ACCESS:          0 HIT:          0 MISS:          0
cpu0_L1I TRANSLATION  ACCESS:          0 HIT:          0 MISS:          0
cpu0_L1I PREFETCH REQUESTED:          0 ISSUED:          0 USEFUL:          0 USELESS:          0
cpu0_L1I AVERAGE MISS LATENCY: 169.7 cycles
cpu0_L2C TOTAL        ACCESS:   30446128 HIT:    2885796 MISS:   27560332
cpu0_L2C LOAD         ACCESS:   26667410 HIT:     300134 MISS:   26367276
cpu0_L2C RF