Script started on 2023-10-11 00:31:36+05:30 [TERM="xterm-256color" TTY="/dev/pts/15" COLUMNS="173" LINES="18"]
[?2004h]0;anishk@wellsfargo-OptiPlex-5090: ~/ChampSim[01;32manishk@wellsfargo-OptiPlex-5090[00m:[01;34m~/ChampSim[00m$ bin/champsim --warmup_instructions 200000000 --simulation_instructions 500000000 ~/Downloads/602.gcc_s-2226B.champsimtrace.xz [C[C[C[C[C[C[C[C[C[C[C[C[C[C[C[C[C[C[C[C[C[C[C[C[C[C[C[C[C[C[C[C[C[C[C[C[C[C[C[C[C[C[C[Cscript hybrid_tp3.txt[Kmake[K./config.sh champsim_config.json[11Pscript hybrid_tp2.txtmake[K./config.sh champsim_config.json[12Pscript hybrid_tp.txtmake[K./config.sh champsim_config.jsonmake[Kscript hybrid_tp.txt./config.sh champsim_config.jsonmake[Kscript hybrid_tp2.txt./config.sh champsim_config.jsonmake[Kscript hybrid_tp3.txtbin/champsim --warmup_instructions 200000000 --simulation_instructions 500000000 ~/Downloads/602.gcc_s-2226B.champsimtrace.xz [K[K[K[K[K[K[K[K[K[K[K[K[K[K[K[K[K[K[K[K[K[K[K[K[K[K[K[K[K[K[K[K05.mcf_s-472B.champsimtrace.xz 
[?2004lWARNING: physical memory size is smaller than virtual memory size.
WARNING: option --warmup_instructions is deprecated. Use --warmup-instructions instead.
WARNING: option --simulation_instructions is deprecated. Use --simulation-instructions instead.

*** ChampSim Multicore Out-of-Order Simulator ***
Warmup Instructions: 200000000
Simulation Instructions: 500000000
Number of CPUs: 1
Page size: 4096

Off-chip DRAM Size: 4 GiB Channels: 1 Width: 64-bit Data Race: 3200 MT/s
Heartbeat CPU 0 instructions: 10000003 cycles: 2991490 heartbeat IPC: 3.343 cumulative IPC: 3.343 (Simulation time: 00 hr 00 min 21 sec)
Heartbeat CPU 0 instructions: 20000002 cycles: 5823201 heartbeat IPC: 3.531 cumulative IPC: 3.435 (Simulation time: 00 hr 00 min 42 sec)
Heartbeat CPU 0 instructions: 30000003 cycles: 8581195 heartbeat IPC: 3.626 cumulative IPC: 3.496 (Simulation time: 00 hr 01 min 04 sec)
Heartbeat CPU 0 instructions: 40000002 cycles: 11571127 heartbeat IPC: 3.345 cumulative IPC: 3.457 (Simulation time: 00 hr 01 min 25 sec)
Heartbeat CPU 0 instructions: 50000002 cycles: 14505603 heartbeat IPC: 3.408 cumulative IPC: 3.447 (Simulation time: 00 hr 01 min 46 sec)
Heartbeat CPU 0 instructions: 60000004 cycles: 17431348 heartbeat IPC: 3.418 cumulative IPC: 3.442 (Simulation time: 00 hr 02 min 07 sec)
Heartbeat CPU 0 instructions: 70000001 cycles: 20384775 heartbeat IPC: 3.386 cumulative IPC: 3.434 (Simulation time: 00 hr 02 min 29 sec)
Heartbeat CPU 0 instructions: 80000000 cycles: 23214597 heartbeat IPC: 3.534 cumulative IPC: 3.446 (Simulation time: 00 hr 02 min 51 sec)
Heartbeat CPU 0 instructions: 90000003 cycles: 26173315 heartbeat IPC: 3.38 cumulative IPC: 3.439 (Simulation time: 00 hr 03 min 12 sec)
Heartbeat CPU 0 instructions: 100000000 cycles: 29044885 heartbeat IPC: 3.482 cumulative IPC: 3.443 (Simulation time: 00 hr 03 min 33 sec)
Heartbeat CPU 0 instructions: 110000004 cycles: 32044877 heartbeat IPC: 3.333 cumulative IPC: 3.433 (Simulation time: 00 hr 03 min 55 sec)
Heartbeat CPU 0 instructions: 120000004 cycles: 34969196 heartbeat IPC: 3.42 cumulative IPC: 3.432 (Simulation time: 00 hr 04 min 16 sec)
Heartbeat CPU 0 instructions: 130000000 cycles: 37888602 heartbeat IPC: 3.425 cumulative IPC: 3.431 (Simulation time: 00 hr 04 min 37 sec)
Heartbeat CPU 0 instructions: 140000001 cycles: 40767715 heartbeat IPC: 3.473 cumulative IPC: 3.434 (Simulation time: 00 hr 04 min 58 sec)
Heartbeat CPU 0 instructions: 150000000 cycles: 43646279 heartbeat IPC: 3.474 cumulative IPC: 3.437 (Simulation time: 00 hr 05 min 19 sec)
Heartbeat CPU 0 instructions: 160000003 cycles: 46591496 heartbeat IPC: 3.395 cumulative IPC: 3.434 (Simulation time: 00 hr 05 min 40 sec)
Heartbeat CPU 0 instructions: 170000001 cycles: 49560834 heartbeat IPC: 3.368 cumulative IPC: 3.43 (Simulation time: 00 hr 06 min 01 sec)
Heartbeat CPU 0 instructions: 180000004 cycles: 52524733 heartbeat IPC: 3.374 cumulative IPC: 3.427 (Simulation time: 00 hr 06 min 22 sec)
Heartbeat CPU 0 instructions: 190000002 cycles: 55335652 heartbeat IPC: 3.558 cumulative IPC: 3.434 (Simulation time: 00 hr 06 min 43 sec)
Heartbeat CPU 0 instructions: 200000000 cycles: 58255485 heartbeat IPC: 3.425 cumulative IPC: 3.433 (Simulation time: 00 hr 07 min 04 sec)
Warmup finished CPU 0 instructions: 200000000 cycles: 58255486 cumulative IPC: 3.433 (Simulation time: 00 hr 07 min 04 sec)
Warmup complete CPU 0 instructions: 200000000 cycles: 58255486 cumulative IPC: 3.433 (Simulation time: 00 hr 07 min 04 sec)
Heartbeat CPU 0 instructions: 210000004 cycles: 77215529 heartbeat IPC: 0.5274 cumulative IPC: 0.5274 (Simulation time: 00 hr 08 min 20 sec)
Heartbeat CPU 0 instructions: 220000004 cycles: 98848762 heartbeat IPC: 0.4623 cumulative IPC: 0.4927 (Simulation time: 00 hr 09 min 45 sec)
Heartbeat CPU 0 instructions: 230000001 cycles: 119922366 heartbeat IPC: 0.4745 cumulative IPC: 0.4865 (Simulation time: 00 hr 11 min 09 sec)
Heartbeat CPU 0 instructions: 240000001 cycles: 140065297 heartbeat IPC: 0.4965 cumulative IPC: 0.4889 (Simulation time: 00 hr 12 min 32 sec)
Heartbeat CPU 0 instructions: 250000000 cycles: 151703767 heartbeat IPC: 0.8592 cumulative IPC: 0.5351 (Simulation time: 00 hr 13 min 32 sec)
Heartbeat CPU 0 instructions: 260000000 cycles: 164041353 heartbeat IPC: 0.8105 cumulative IPC: 0.5672 (Simulation time: 00 hr 14 min 33 sec)
Heartbeat CPU 0 instructions: 270000000 cycles: 182802284 heartbeat IPC: 0.533 cumulative IPC: 0.562 (Simulation time: 00 hr 15 min 43 sec)
Heartbeat CPU 0 instructions: 280000000 cycles: 205424455 heartbeat IPC: 0.442 cumulative IPC: 0.5436 (Simulation time: 00 hr 16 min 59 sec)
Heartbeat CPU 0 instructions: 290000001 cycles: 223609078 heartbeat IPC: 0.5499 cumulative IPC: 0.5443 (Simulation time: 00 hr 18 min 06 sec)
Heartbeat CPU 0 instructions: 300000001 cycles: 243854374 heartbeat IPC: 0.4939 cumulative IPC: 0.5388 (Simulation time: 00 hr 19 min 27 sec)
Heartbeat CPU 0 instructions: 310000001 cycles: 267814297 heartbeat IPC: 0.4174 cumulative IPC: 0.5249 (Simulation time: 00 hr 21 min 02 sec)
Heartbeat CPU 0 instructions: 320000001 cycles: 295284425 heartbeat IPC: 0.364 cumulative IPC: 0.5063 (Simulation time: 00 hr 22 min 47 sec)
Heartbeat CPU 0 instructions: 330000002 cycles: 317278753 heartbeat IPC: 0.4547 cumulative IPC: 0.5019 (Simulation time: 00 hr 24 min 13 sec)
Heartbeat CPU 0 instructions: 340000001 cycles: 333444198 heartbeat IPC: 0.6186 cumulative IPC: 0.5087 (Simulation time: 00 hr 25 min 18 sec)
Heartbeat CPU 0 instructions: 350000004 cycles: 361772314 heartbeat IPC: 0.353 cumulative IPC: 0.4942 (Simulation time: 00 hr 27 min 01 sec)
Heartbeat CPU 0 instructions: 360000000 cycles: 388769645 heartbeat IPC: 0.3704 cumulative IPC: 0.4841 (Simulation time: 00 hr 28 min 39 sec)
Heartbeat CPU 0 instructions: 370000000 cycles: 410117498 heartbeat IPC: 0.4684 cumulative IPC: 0.4831 (Simulation time: 00 hr 29 min 59 sec)
Heartbeat CPU 0 instructions: 380000000 cycles: 430521222 heartbeat IPC: 0.4901 cumulative IPC: 0.4835 (Simulation time: 00 hr 31 min 16 sec)
Heartbeat CPU 0 instructions: 390000000 cycles: 453127992 heartbeat IPC: 0.4423 cumulative IPC: 0.4812 (Simulation time: 00 hr 32 min 40 sec)
Heartbeat CPU 0 instructions: 400000002 cycles: 477347870 heartbeat IPC: 0.4129 cumulative IPC: 0.4772 (Simulation time: 00 hr 34 min 09 sec)
Heartbeat CPU 0 instructions: 410000001 cycles: 494682374 heartbeat IPC: 0.5769 cumulative IPC: 0.4812 (Simulation time: 00 hr 35 min 15 sec)
Heartbeat CPU 0 instructions: 420000002 cycles: 512316780 heartbeat IPC: 0.5671 cumulative IPC: 0.4845 (Simulation time: 00 hr 36 min 23 sec)
Heartbeat CPU 0 instructions: 430000001 cycles: 535930334 heartbeat IPC: 0.4235 cumulative IPC: 0.4815 (Simulation time: 00 hr 37 min 50 sec)
Heartbeat CPU 0 instructions: 440000002 cycles: 558591096 heartbeat IPC: 0.4413 cumulative IPC: 0.4797 (Simulation time: 00 hr 39 min 14 sec)
Heartbeat CPU 0 instructions: 450000000 cycles: 579301867 heartbeat IPC: 0.4828 cumulative IPC: 0.4798 (Simulation time: 00 hr 40 min 31 sec)
Heartbeat CPU 0 instructions: 460000000 cycles: 594031531 heartbeat IPC: 0.6789 cumulative IPC: 0.4853 (Simulation time: 00 hr 41 min 29 sec)
Heartbeat CPU 0 instructions: 470000002 cycles: 612765014 heartbeat IPC: 0.5338 cumulative IPC: 0.4869 (Simulation time: 00 hr 42 min 40 sec)
Heartbeat CPU 0 instructions: 480000002 cycles: 640874372 heartbeat IPC: 0.3558 cumulative IPC: 0.4806 (Simulation time: 00 hr 44 min 21 sec)
Heartbeat CPU 0 instructions: 490000000 cycles: 663460814 heartbeat IPC: 0.4427 cumulative IPC: 0.4792 (Simulation time: 00 hr 45 min 46 sec)
Heartbeat CPU 0 instructions: 500000000 cycles: 684917202 heartbeat IPC: 0.4661 cumulative IPC: 0.4787 (Simulation time: 00 hr 47 min 05 sec)
Heartbeat CPU 0 instructions: 510000002 cycles: 706779975 heartbeat IPC: 0.4574 cumulative IPC: 0.478 (Simulation time: 00 hr 48 min 25 sec)
Heartbeat CPU 0 instructions: 520000001 cycles: 733692632 heartbeat IPC: 0.3716 cumulative IPC: 0.4738 (Simulation time: 00 hr 50 min 01 sec)
Heartbeat CPU 0 instructions: 530000001 cycles: 753102364 heartbeat IPC: 0.5152 cumulative IPC: 0.4749 (Simulation time: 00 hr 51 min 13 sec)
Heartbeat CPU 0 instructions: 540000003 cycles: 767917201 heartbeat IPC: 0.675 cumulative IPC: 0.4791 (Simulation time: 00 hr 52 min 10 sec)
Heartbeat CPU 0 instructions: 550000000 cycles: 793368466 heartbeat IPC: 0.3929 cumulative IPC: 0.4761 (Simulation time: 00 hr 53 min 41 sec)
Heartbeat CPU 0 instructions: 560000004 cycles: 814514416 heartbeat IPC: 0.4729 cumulative IPC: 0.476 (Simulation time: 00 hr 54 min 58 sec)
Heartbeat CPU 0 instructions: 570000003 cycles: 832568681 heartbeat IPC: 0.5539 cumulative IPC: 0.4778 (Simulation time: 00 hr 56 min 05 sec)
Heartbeat CPU 0 instructions: 580000001 cycles: 859049098 heartbeat IPC: 0.3776 cumulative IPC: 0.4745 (Simulation time: 00 hr 57 min 40 sec)
Heartbeat CPU 0 instructions: 590000001 cycles: 880951020 heartbeat IPC: 0.4566 cumulative IPC: 0.4741 (Simulation time: 00 hr 59 min 01 sec)
Heartbeat CPU 0 instructions: 600000002 cycles: 903371561 heartbeat IPC: 0.446 cumulative IPC: 0.4733 (Simulation time: 01 hr 00 min 22 sec)
Heartbeat CPU 0 instructions: 610000003 cycles: 923190406 heartbeat IPC: 0.5046 cumulative IPC: 0.474 (Simulation time: 01 hr 01 min 34 sec)
Heartbeat CPU 0 instructions: 620000002 cycles: 945335977 heartbeat IPC: 0.4516 cumulative IPC: 0.4735 (Simulation time: 01 hr 02 min 56 sec)
Heartbeat CPU 0 instructions: 630000000 cycles: 966333170 heartbeat IPC: 0.4763 cumulative IPC: 0.4735 (Simulation time: 01 hr 04 min 12 sec)
Heartbeat CPU 0 instructions: 640000000 cycles: 993501672 heartbeat IPC: 0.3681 cumulative IPC: 0.4705 (Simulation time: 01 hr 05 min 49 sec)
Heartbeat CPU 0 instructions: 650000001 cycles: 1011336587 heartbeat IPC: 0.5607 cumulative IPC: 0.4722 (Simulation time: 01 hr 06 min 55 sec)
Heartbeat CPU 0 instructions: 660000002 cycles: 1028836403 heartbeat IPC: 0.5714 cumulative IPC: 0.4739 (Simulation time: 01 hr 08 min 00 sec)
Heartbeat CPU 0 instructions: 670000004 cycles: 1051272112 heartbeat IPC: 0.4457 cumulative IPC: 0.4733 (Simulation time: 01 hr 09 min 21 sec)
Heartbeat CPU 0 instructions: 680000000 cycles: 1067796918 heartbeat IPC: 0.6052 cumulative IPC: 0.4755 (Simulation time: 01 hr 10 min 24 sec)
Heartbeat CPU 0 instructions: 690000002 cycles: 1091119692 heartbeat IPC: 0.4288 cumulative IPC: 0.4744 (Simulation time: 01 hr 11 min 48 sec)
Heartbeat CPU 0 instructions: 700000000 cycles: 1113867491 heartbeat IPC: 0.4396 cumulative IPC: 0.4737 (Simulation time: 01 hr 13 min 11 sec)
Simulation finished CPU 0 instructions: 500000000 cycles: 1055612006 cumulative IPC: 0.4737 (Simulation time: 01 hr 13 min 11 sec)
Simulation complete CPU 0 instructions: 500000000 cycles: 1055612006 cumulative IPC: 0.4737 (Simulation time: 01 hr 13 min 11 sec)

ChampSim completed all CPUs

=== Simulation ===
CPU 0 runs /home/anishk/Downloads/605.mcf_s-472B.champsimtrace.xz
Region of Interest Statistics

CPU 0 cumulative IPC: 0.4737 instructions: 500000000 cycles: 1055612006
CPU 0 Branch Prediction Accuracy: 98.46% MPKI: 2.117 Average ROB Occupancy at Mispredict: 108.6
Branch type MPKI
BRANCH_DIRECT_JUMP: 0
BRANCH_INDIRECT: 0
BRANCH_CONDITIONAL: 2.12
BRANCH_DIRECT_CALL: 2e-06
BRANCH_INDIRECT_CALL: 0
BRANCH_RETURN: 2e-06

LLC TOTAL        ACCESS:   29664255 HIT:    2130931 MISS:   27533324
LLC LOAD         ACCESS:   26367003 HIT:      17757 MISS:   26349246
LLC RFO          ACCESS:    1145417 HIT:        414 MISS:    1145003
LLC PREFETCH     ACCESS:          0 HIT:          0 MISS:          0
LLC WRITE        ACCESS:    2114705 HIT:    2107646 MISS:       7059
LLC TRANSLATION  ACCESS:      37130 HIT:       5114 MISS:      32016
LLC PREFETCH REQUESTED:          0 ISSUED:          0 USEFUL:          0 USELESS:          0
LLC AVERAGE MISS LATENCY: 380.3 cycles
cpu0_DTLB TOTAL        ACCESS:  140517320 HIT:  134569386 MISS:    5947934
cpu0_DTLB LOAD         ACCESS:  140517320 HIT:  134569386 MISS:    5947934
cpu0_DTLB RFO          ACCESS:          0 HIT:          0 MISS:          0
cpu0_DTLB PREFETCH     ACCESS:          0 HIT:          0 MISS:          0
cpu0_DTLB WRITE        ACCESS:          0 HIT:          0 MISS:          0
cpu0_DTLB TRANSLATION  ACCESS:          0 HIT:          0 MISS:          0
cpu0_DTLB PREFETCH REQUESTED:          0 ISSUED:          0 USEFUL:          0 USELESS:          0
cpu0_DTLB AVERAGE MISS LATENCY: 9.898 cycles
cpu0_ITLB TOTAL        ACCESS:         18 HIT:         18 MISS:          0
cpu0_ITLB LOAD         ACCESS:         18 HIT:         18 MISS:          0
cpu0_ITLB RFO          ACCESS:          0 HIT:          0 MISS:          0
cpu0_ITLB PREFETCH     ACCESS:          0 HIT:          0 MISS:          0
cpu0_ITLB WRITE        ACCESS:          0 HIT:          0 MISS:          0
cpu0_ITLB TRANSLATION  ACCESS:          0 HIT:          0 MISS:          0
cpu0_ITLB PREFETCH REQUESTED:          0 ISSUED:          0 USEFUL:          0 USELESS:          0
cpu0_ITLB AVERAGE MISS LATENCY: -nan cycles
cpu0_L1D TOTAL        ACCESS:  203629678 HIT:  168811196 MISS:   34818482
cpu0_L1D LOAD         ACCESS:   95180063 HIT:   65726339 MISS:   29453724
cpu0_L1D RFO          ACCESS:          0 HIT:          0 MISS:          0
cpu0_L1D PREFETCH     ACCESS:          0 HIT:          0 MISS:          0
cpu0_L1D WRITE        ACCESS:  107776124 HIT:  102552136 MISS:    5223988
cpu0_L1D TRANSLATION  ACCESS:     673491 HIT:     532721 MISS:     140770
cpu0_L1D PREFETCH REQUESTED:          0 ISSUED:          0 USEFUL:          0 USELESS:          0
cpu0_L1D AVERAGE MISS LATENCY: 323.2 cycles
cpu0_L1I TOTAL        ACCESS:         20 HIT:          8 MISS:         12
cpu0_L1I LOAD         ACCESS:         20 HIT:          8 MISS:         12
cpu0_L1I RFO          ACCESS:          0 HIT:          0 MISS:          0
cpu0_L1I PREFETCH     ACCESS:          0 HIT:          0 MISS:          0
cpu0_L1I WRITE        ACCESS:          0 HIT:          0 MISS:          0
cpu0_L1I TRANSLATION  ACCESS:          0 HIT:          0 MISS:          0
cpu0_L1I PREFETCH REQUESTED:          0 ISSUED:          0 USEFUL:          0 USELESS:          0
cpu0_L1I AVERAGE MISS LATENCY: 169.6 cycles
cpu0_L2C TOTAL        ACCESS:   30446130 HIT:    2886070 MISS:   27560060
cpu0_L2C LOAD         ACCESS:   26667436 HIT:     300432 MISS:   26367004
cpu0_L2C RFO          ACCESS:    1230519 HIT:      85102 MISS:    1145417
cpu0_L2C PREFETCH     ACCESS:          0 HIT:          0 MISS:          0
cpu0_L2C WRITE        ACCESS:    2407632 HIT:    2397123 MISS:      10509
cpu0_L2C TRANSLATION  ACCESS:     140543 HIT:     103413 MISS:      37130
cpu0_L2C PREFETCH REQUESTED:          0 ISSUED:          0 USEFUL:          0 USELESS:          0
cpu0_L2C AVERAGE MISS LATENCY: 400.