Script started on 2023-10-11 15:01:05+05:30 [TERM="xterm-256color" TTY="/dev/pts/27" COLUMNS="173" LINES="15"]
[?2004h]0;anishk@wellsfargo-OptiPlex-5090: ~/ChampSim[01;32manishk@wellsfargo-OptiPlex-5090[00m:[01;34m~/ChampSim[00m$ bin/champsim --warmup_instructions 200000000 --simulation_instructions 500000000 ~/Downloads/602.gcc_s-2226B.champsimtrace.xz [K[K[K[K[K[K[K[K[K[K[K[K[K[K[K[K[K[K[K[K[K[K[K[K[K[K[K[K[K[K[K[K25.x264_s-18B.champsimtrace.xz 
[?2004lWARNING: physical memory size is smaller than virtual memory size.
WARNING: option --warmup_instructions is deprecated. Use --warmup-instructions instead.
WARNING: option --simulation_instructions is deprecated. Use --simulation-instructions instead.

*** ChampSim Multicore Out-of-Order Simulator ***
Warmup Instructions: 200000000
Simulation Instructions: 500000000
Number of CPUs: 1
Page size: 4096

Off-chip DRAM Size: 4 GiB Channels: 1 Width: 64-bit Data Race: 3200 MT/s
Heartbeat CPU 0 instructions: 10000003 cycles: 2500043 heartbeat IPC: 4 cumulative IPC: 4 (Simulation time: 00 hr 00 min 15 sec)
Heartbeat CPU 0 instructions: 20000003 cycles: 5000043 heartbeat IPC: 4 cumulative IPC: 4 (Simulation time: 00 hr 00 min 31 sec)
Heartbeat CPU 0 instructions: 30000002 cycles: 7500235 heartbeat IPC: 4 cumulative IPC: 4 (Simulation time: 00 hr 00 min 48 sec)
Heartbeat CPU 0 instructions: 40000002 cycles: 10000235 heartbeat IPC: 4 cumulative IPC: 4 (Simulation time: 00 hr 01 min 04 sec)
Heartbeat CPU 0 instructions: 50000002 cycles: 12500235 heartbeat IPC: 4 cumulative IPC: 4 (Simulation time: 00 hr 01 min 20 sec)
Heartbeat CPU 0 instructions: 60000002 cycles: 15000235 heartbeat IPC: 4 cumulative IPC: 4 (Simulation time: 00 hr 01 min 35 sec)
Heartbeat CPU 0 instructions: 70000002 cycles: 17500235 heartbeat IPC: 4 cumulative IPC: 4 (Simulation time: 00 hr 01 min 51 sec)
Heartbeat CPU 0 instructions: 80000002 cycles: 20000235 heartbeat IPC: 4 cumulative IPC: 4 (Simulation time: 00 hr 02 min 07 sec)
Heartbeat CPU 0 instructions: 90000002 cycles: 22500235 heartbeat IPC: 4 cumulative IPC: 4 (Simulation time: 00 hr 02 min 23 sec)
Heartbeat CPU 0 instructions: 100000002 cycles: 25000235 heartbeat IPC: 4 cumulative IPC: 4 (Simulation time: 00 hr 02 min 38 sec)
Heartbeat CPU 0 instructions: 110000002 cycles: 27500235 heartbeat IPC: 4 cumulative IPC: 4 (Simulation time: 00 hr 02 min 54 sec)
Heartbeat CPU 0 instructions: 120000002 cycles: 30000235 heartbeat IPC: 4 cumulative IPC: 4 (Simulation time: 00 hr 03 min 09 sec)
Heartbeat CPU 0 instructions: 130000002 cycles: 32500235 heartbeat IPC: 4 cumulative IPC: 4 (Simulation time: 00 hr 03 min 25 sec)
Heartbeat CPU 0 instructions: 140000003 cycles: 35003666 heartbeat IPC: 3.995 cumulative IPC: 4 (Simulation time: 00 hr 03 min 41 sec)
Heartbeat CPU 0 instructions: 150000001 cycles: 37517413 heartbeat IPC: 3.978 cumulative IPC: 3.998 (Simulation time: 00 hr 03 min 58 sec)
Heartbeat CPU 0 instructions: 160000000 cycles: 40017799 heartbeat IPC: 3.999 cumulative IPC: 3.998 (Simulation time: 00 hr 04 min 13 sec)
Heartbeat CPU 0 instructions: 170000000 cycles: 42518301 heartbeat IPC: 3.999 cumulative IPC: 3.998 (Simulation time: 00 hr 04 min 29 sec)
Heartbeat CPU 0 instructions: 180000000 cycles: 45018892 heartbeat IPC: 3.999 cumulative IPC: 3.998 (Simulation time: 00 hr 04 min 45 sec)
Heartbeat CPU 0 instructions: 190000002 cycles: 47519495 heartbeat IPC: 3.999 cumulative IPC: 3.998 (Simulation time: 00 hr 05 min 02 sec)
Heartbeat CPU 0 instructions: 200000000 cycles: 50019864 heartbeat IPC: 3.999 cumulative IPC: 3.998 (Simulation time: 00 hr 05 min 18 sec)
Warmup finished CPU 0 instructions: 200000000 cycles: 50019865 cumulative IPC: 3.998 (Simulation time: 00 hr 05 min 18 sec)
Warmup complete CPU 0 instructions: 200000000 cycles: 50019865 cumulative IPC: 3.998 (Simulation time: 00 hr 05 min 18 sec)
Heartbeat CPU 0 instructions: 210000000 cycles: 53058334 heartbeat IPC: 3.291 cumulative IPC: 3.291 (Simulation time: 00 hr 05 min 39 sec)
Heartbeat CPU 0 instructions: 220000001 cycles: 56161156 heartbeat IPC: 3.223 cumulative IPC: 3.257 (Simulation time: 00 hr 05 min 59 sec)
Heartbeat CPU 0 instructions: 230000000 cycles: 59232035 heartbeat IPC: 3.256 cumulative IPC: 3.257 (Simulation time: 00 hr 06 min 19 sec)
Heartbeat CPU 0 instructions: 240000003 cycles: 62300255 heartbeat IPC: 3.259 cumulative IPC: 3.257 (Simulation time: 00 hr 06 min 39 sec)
Heartbeat CPU 0 instructions: 250000003 cycles: 65403471 heartbeat IPC: 3.222 cumulative IPC: 3.25 (Simulation time: 00 hr 06 min 59 sec)
Heartbeat CPU 0 instructions: 260000000 cycles: 68460120 heartbeat IPC: 3.272 cumulative IPC: 3.254 (Simulation time: 00 hr 07 min 19 sec)
Heartbeat CPU 0 instructions: 270000004 cycles: 71522323 heartbeat IPC: 3.266 cumulative IPC: 3.255 (Simulation time: 00 hr 07 min 39 sec)
Heartbeat CPU 0 instructions: 280000000 cycles: 74607323 heartbeat IPC: 3.241 cumulative IPC: 3.254 (Simulation time: 00 hr 08 min 00 sec)
Heartbeat CPU 0 instructions: 290000004 cycles: 77658457 heartbeat IPC: 3.277 cumulative IPC: 3.256 (Simulation time: 00 hr 08 min 20 sec)
Heartbeat CPU 0 instructions: 300000000 cycles: 80686381 heartbeat IPC: 3.303 cumulative IPC: 3.261 (Simulation time: 00 hr 08 min 39 sec)
Heartbeat CPU 0 instructions: 310000000 cycles: 83763878 heartbeat IPC: 3.249 cumulative IPC: 3.26 (Simulation time: 00 hr 08 min 59 sec)
Heartbeat CPU 0 instructions: 320000000 cycles: 86791544 heartbeat IPC: 3.303 cumulative IPC: 3.263 (Simulation time: 00 hr 09 min 19 sec)
Heartbeat CPU 0 instructions: 330000003 cycles: 89800427 heartbeat IPC: 3.323 cumulative IPC: 3.268 (Simulation time: 00 hr 09 min 39 sec)
Heartbeat CPU 0 instructions: 340000003 cycles: 92810618 heartbeat IPC: 3.322 cumulative IPC: 3.272 (Simulation time: 00 hr 09 min 59 sec)
Heartbeat CPU 0 instructions: 350000003 cycles: 95817497 heartbeat IPC: 3.326 cumulative IPC: 3.275 (Simulation time: 00 hr 10 min 19 sec)
Heartbeat CPU 0 instructions: 360000001 cycles: 98818632 heartbeat IPC: 3.332 cumulative IPC: 3.279 (Simulation time: 00 hr 10 min 39 sec)
Heartbeat CPU 0 instructions: 370000002 cycles: 101816294 heartbeat IPC: 3.336 cumulative IPC: 3.282 (Simulation time: 00 hr 10 min 59 sec)
Heartbeat CPU 0 instructions: 380000001 cycles: 104829234 heartbeat IPC: 3.319 cumulative IPC: 3.284 (Simulation time: 00 hr 11 min 19 sec)
Heartbeat CPU 0 instructions: 390000004 cycles: 107842351 heartbeat IPC: 3.319 cumulative IPC: 3.286 (Simulation time: 00 hr 11 min 39 sec)
Heartbeat CPU 0 instructions: 400000000 cycles: 116388215 heartbeat IPC: 1.17 cumulative IPC: 3.013 (Simulation time: 00 hr 12 min 18 sec)
Heartbeat CPU 0 instructions: 410000001 cycles: 119118718 heartbeat IPC: 3.662 cumulative IPC: 3.039 (Simulation time: 00 hr 12 min 37 sec)
Heartbeat CPU 0 instructions: 420000001 cycles: 122344009 heartbeat IPC: 3.1 cumulative IPC: 3.042 (Simulation time: 00 hr 12 min 58 sec)
Heartbeat CPU 0 instructions: 430000000 cycles: 125886390 heartbeat IPC: 2.823 cumulative IPC: 3.032 (Simulation time: 00 hr 13 min 20 sec)
Heartbeat CPU 0 instructions: 440000000 cycles: 128857610 heartbeat IPC: 3.366 cumulative IPC: 3.044 (Simulation time: 00 hr 13 min 40 sec)
Heartbeat CPU 0 instructions: 450000004 cycles: 131808465 heartbeat IPC: 3.389 cumulative IPC: 3.057 (Simulation time: 00 hr 14 min 01 sec)
Heartbeat CPU 0 instructions: 460000003 cycles: 134809163 heartbeat IPC: 3.333 cumulative IPC: 3.066 (Simulation time: 00 hr 14 min 22 sec)
Heartbeat CPU 0 instructions: 470000004 cycles: 137811270 heartbeat IPC: 3.331 cumulative IPC: 3.075 (Simulation time: 00 hr 14 min 42 sec)
Heartbeat CPU 0 instructions: 480000001 cycles: 140774033 heartbeat IPC: 3.375 cumulative IPC: 3.085 (Simulation time: 00 hr 15 min 03 sec)
Heartbeat CPU 0 instructions: 490000002 cycles: 143824242 heartbeat IPC: 3.278 cumulative IPC: 3.092 (Simulation time: 00 hr 15 min 23 sec)
Heartbeat CPU 0 instructions: 500000002 cycles: 146809373 heartbeat IPC: 3.35 cumulative IPC: 3.1 (Simulation time: 00 hr 15 min 44 sec)
Heartbeat CPU 0 instructions: 510000003 cycles: 149802436 heartbeat IPC: 3.341 cumulative IPC: 3.107 (Simulation time: 00 hr 16 min 05 sec)
Heartbeat CPU 0 instructions: 520000002 cycles: 152753624 heartbeat IPC: 3.388 cumulative IPC: 3.115 (Simulation time: 00 hr 16 min 25 sec)
Heartbeat CPU 0 instructions: 530000003 cycles: 155748301 heartbeat IPC: 3.339 cumulative IPC: 3.121 (Simulation time: 00 hr 16 min 45 sec)
Heartbeat CPU 0 instructions: 540000000 cycles: 158741289 heartbeat IPC: 3.341 cumulative IPC: 3.127 (Simulation time: 00 hr 17 min 05 sec)
Heartbeat CPU 0 instructions: 550000001 cycles: 161693777 heartbeat IPC: 3.387 cumulative IPC: 3.134 (Simulation time: 00 hr 17 min 25 sec)
Heartbeat CPU 0 instructions: 560000003 cycles: 164660766 heartbeat IPC: 3.37 cumulative IPC: 3.14 (Simulation time: 00 hr 17 min 45 sec)
Heartbeat CPU 0 instructions: 570000000 cycles: 173403557 heartbeat IPC: 1.144 cumulative IPC: 2.999 (Simulation time: 00 hr 18 min 24 sec)
Heartbeat CPU 0 instructions: 580000003 cycles: 176206738 heartbeat IPC: 3.567 cumulative IPC: 3.011 (Simulation time: 00 hr 18 min 44 sec)
Heartbeat CPU 0 instructions: 590000003 cycles: 179858330 heartbeat IPC: 2.739 cumulative IPC: 3.004 (Simulation time: 00 hr 19 min 06 sec)
Heartbeat CPU 0 instructions: 600000004 cycles: 183212344 heartbeat IPC: 2.982 cumulative IPC: 3.003 (Simulation time: 00 hr 19 min 29 sec)
Heartbeat CPU 0 instructions: 610000004 cycles: 186564692 heartbeat IPC: 2.983 cumulative IPC: 3.003 (Simulation time: 00 hr 19 min 51 sec)
Heartbeat CPU 0 instructions: 620000000 cycles: 189902252 heartbeat IPC: 2.996 cumulative IPC: 3.003 (Simulation time: 00 hr 20 min 15 sec)
Heartbeat CPU 0 instructions: 630000001 cycles: 193268728 heartbeat IPC: 2.97 cumulative IPC: 3.002 (Simulation time: 00 hr 20 min 38 sec)
Heartbeat CPU 0 instructions: 640000002 cycles: 196615517 heartbeat IPC: 2.988 cumulative IPC: 3.001 (Simulation time: 00 hr 21 min 01 sec)
Heartbeat CPU 0 instructions: 650000003 cycles: 199960475 heartbeat IPC: 2.99 cumulative IPC: 3.001 (Simulation time: 00 hr 21 min 24 sec)
Heartbeat CPU 0 instructions: 660000001 cycles: 203289445 heartbeat IPC: 3.004 cumulative IPC: 3.001 (Simulation time: 00 hr 21 min 47 sec)
Heartbeat CPU 0 instructions: 670000002 cycles: 211431736 heartbeat IPC: 1.228 cumulative IPC: 2.912 (Simulation time: 00 hr 22 min 25 sec)
Heartbeat CPU 0 instructions: 680000001 cycles: 214496973 heartbeat IPC: 3.262 cumulative IPC: 2.918 (Simulation time: 00 hr 22 min 46 sec)
Heartbeat CPU 0 instructions: 690000000 cycles: 218078008 heartbeat IPC: 2.792 cumulative IPC: 2.916 (Simulation time: 00 hr 23 min 09 sec)
Heartbeat CPU 0 instructions: 700000000 cycles: 221424612 heartbeat IPC: 2.988 cumulative IPC: 2.917 (Simulation time: 00 hr 23 min 32 sec)
Simulation finished CPU 0 instructions: 500000000 cycles: 171404748 cumulative IPC: 2.917 (Simulation time: 00 hr 23 min 32 sec)
Simulation complete CPU 0 instructions: 500000000 cycles: 171404748 cumulative IPC: 2.917 (Simulation time: 00 hr 23 min 32 sec)

ChampSim completed all CPUs

=== Simulation ===
CPU 0 runs /home/anishk/Downloads/625.x264_s-18B.champsimtrace.xz
Region of Interest Statistics

CPU 0 cumulative IPC: 2.917 instructions: 500000000 cycles: 171404748
CPU 0 Branch Prediction Accuracy: 96.07% MPKI: 1.592 Average ROB Occupancy at Mispredict: 126.3
Branch type MPKI
BRANCH_DIRECT_JUMP: 0.00799
BRANCH_INDIRECT: 0.00133
BRANCH_CONDITIONAL: 1.43
BRANCH_DIRECT_CALL: 0.0279
BRANCH_INDIRECT_CALL: 0.0391
BRANCH_RETURN: 0.0861

LLC TOTAL        ACCESS:    1317476 HIT:     520064 MISS:     797412
LLC LOAD         ACCESS:     600349 HIT:     127685 MISS:     472664
LLC RFO          ACCESS:     323896 HIT:       1626 MISS:     322270
LLC PREFETCH     ACCESS:          0 HIT:          0 MISS:          0
LLC WRITE        ACCESS:     388511 HIT:     387497 MISS:       1014
LLC TRANSLATION  ACCESS:       4720 HIT:       3256 MISS:       1464
LLC PREFETCH REQUESTED:          0 ISSUED:          0 USEFUL:          0 USELESS:          0
LLC AVERAGE MISS LATENCY: 474.8 cycles