Script started on 2023-10-11 15:00:41+05:30 [TERM="xterm-256color" TTY="/dev/pts/26" COLUMNS="173" LINES="15"]
[?2004h]0;anishk@wellsfargo-OptiPlex-5090: ~/ChampSim[01;32manishk@wellsfargo-OptiPlex-5090[00m:[01;34m~/ChampSim[00m$ bin/champsim --warmup_instructions 200000000 --simulation_instructions 500000000 ~/Downloads/602.gcc_s-2226B.champsimtrace.xz [K[K[K[K[K[K[K[K[K[K[K[K[K[K[K[K[K[K[K[K[K[K[K[K[K[K[K[K[K[K[K5.mcf_s-472B.champsimtrace.xz 
[?2004lWARNING: physical memory size is smaller than virtual memory size.
WARNING: option --warmup_instructions is deprecated. Use --warmup-instructions instead.
WARNING: option --simulation_instructions is deprecated. Use --simulation-instructions instead.

*** ChampSim Multicore Out-of-Order Simulator ***
Warmup Instructions: 200000000
Simulation Instructions: 500000000
Number of CPUs: 1
Page size: 4096

Off-chip DRAM Size: 4 GiB Channels: 1 Width: 64-bit Data Race: 3200 MT/s
Heartbeat CPU 0 instructions: 10000003 cycles: 2991570 heartbeat IPC: 3.343 cumulative IPC: 3.343 (Simulation time: 00 hr 00 min 18 sec)
Heartbeat CPU 0 instructions: 20000002 cycles: 5823291 heartbeat IPC: 3.531 cumulative IPC: 3.434 (Simulation time: 00 hr 00 min 37 sec)
Heartbeat CPU 0 instructions: 30000003 cycles: 8581215 heartbeat IPC: 3.626 cumulative IPC: 3.496 (Simulation time: 00 hr 00 min 57 sec)
Heartbeat CPU 0 instructions: 40000002 cycles: 11571152 heartbeat IPC: 3.345 cumulative IPC: 3.457 (Simulation time: 00 hr 01 min 18 sec)
Heartbeat CPU 0 instructions: 50000002 cycles: 14505583 heartbeat IPC: 3.408 cumulative IPC: 3.447 (Simulation time: 00 hr 01 min 38 sec)
Heartbeat CPU 0 instructions: 60000004 cycles: 17431418 heartbeat IPC: 3.418 cumulative IPC: 3.442 (Simulation time: 00 hr 01 min 57 sec)
Heartbeat CPU 0 instructions: 70000001 cycles: 20384815 heartbeat IPC: 3.386 cumulative IPC: 3.434 (Simulation time: 00 hr 02 min 17 sec)
Heartbeat CPU 0 instructions: 80000000 cycles: 23214692 heartbeat IPC: 3.534 cumulative IPC: 3.446 (Simulation time: 00 hr 02 min 37 sec)
Heartbeat CPU 0 instructions: 90000001 cycles: 26173392 heartbeat IPC: 3.38 cumulative IPC: 3.439 (Simulation time: 00 hr 02 min 57 sec)
Heartbeat CPU 0 instructions: 100000000 cycles: 29044900 heartbeat IPC: 3.482 cumulative IPC: 3.443 (Simulation time: 00 hr 03 min 16 sec)
Heartbeat CPU 0 instructions: 110000004 cycles: 32044922 heartbeat IPC: 3.333 cumulative IPC: 3.433 (Simulation time: 00 hr 03 min 35 sec)
Heartbeat CPU 0 instructions: 120000004 cycles: 34969201 heartbeat IPC: 3.42 cumulative IPC: 3.432 (Simulation time: 00 hr 03 min 55 sec)
Heartbeat CPU 0 instructions: 130000000 cycles: 37888682 heartbeat IPC: 3.425 cumulative IPC: 3.431 (Simulation time: 00 hr 04 min 15 sec)
Heartbeat CPU 0 instructions: 140000001 cycles: 40767830 heartbeat IPC: 3.473 cumulative IPC: 3.434 (Simulation time: 00 hr 04 min 35 sec)
Heartbeat CPU 0 instructions: 150000000 cycles: 43646454 heartbeat IPC: 3.474 cumulative IPC: 3.437 (Simulation time: 00 hr 04 min 54 sec)
Heartbeat CPU 0 instructions: 160000003 cycles: 46591631 heartbeat IPC: 3.395 cumulative IPC: 3.434 (Simulation time: 00 hr 05 min 14 sec)
Heartbeat CPU 0 instructions: 170000001 cycles: 49560919 heartbeat IPC: 3.368 cumulative IPC: 3.43 (Simulation time: 00 hr 05 min 34 sec)
Heartbeat CPU 0 instructions: 180000004 cycles: 52524833 heartbeat IPC: 3.374 cumulative IPC: 3.427 (Simulation time: 00 hr 05 min 54 sec)
Heartbeat CPU 0 instructions: 190000000 cycles: 55335756 heartbeat IPC: 3.558 cumulative IPC: 3.434 (Simulation time: 00 hr 06 min 15 sec)
Heartbeat CPU 0 instructions: 200000000 cycles: 58255668 heartbeat IPC: 3.425 cumulative IPC: 3.433 (Simulation time: 00 hr 06 min 35 sec)
Warmup finished CPU 0 instructions: 200000000 cycles: 58255669 cumulative IPC: 3.433 (Simulation time: 00 hr 06 min 35 sec)
Warmup complete CPU 0 instructions: 200000000 cycles: 58255669 cumulative IPC: 3.433 (Simulation time: 00 hr 06 min 35 sec)
Heartbeat CPU 0 instructions: 210000004 cycles: 76853847 heartbeat IPC: 0.5377 cumulative IPC: 0.5377 (Simulation time: 00 hr 07 min 53 sec)
Heartbeat CPU 0 instructions: 220000004 cycles: 98212900 heartbeat IPC: 0.4682 cumulative IPC: 0.5005 (Simulation time: 00 hr 09 min 21 sec)
Heartbeat CPU 0 instructions: 230000001 cycles: 118985284 heartbeat IPC: 0.4814 cumulative IPC: 0.494 (Simulation time: 00 hr 10 min 47 sec)
Heartbeat CPU 0 instructions: 240000001 cycles: 138938022 heartbeat IPC: 0.5012 cumulative IPC: 0.4958 (Simulation time: 00 hr 12 min 14 sec)
Heartbeat CPU 0 instructions: 250000000 cycles: 150571777 heartbeat IPC: 0.8596 cumulative IPC: 0.5416 (Simulation time: 00 hr 13 min 15 sec)
Heartbeat CPU 0 instructions: 260000000 cycles: 162892143 heartbeat IPC: 0.8117 cumulative IPC: 0.5734 (Simulation time: 00 hr 14 min 17 sec)
Heartbeat CPU 0 instructions: 270000000 cycles: 181708981 heartbeat IPC: 0.5314 cumulative IPC: 0.567 (Simulation time: 00 hr 15 min 29 sec)
Heartbeat CPU 0 instructions: 280000000 cycles: 204483957 heartbeat IPC: 0.4391 cumulative IPC: 0.5471 (Simulation time: 00 hr 16 min 49 sec)
Heartbeat CPU 0 instructions: 290000001 cycles: 222437772 heartbeat IPC: 0.557 cumulative IPC: 0.5482 (Simulation time: 00 hr 17 min 55 sec)
Heartbeat CPU 0 instructions: 300000001 cycles: 242472549 heartbeat IPC: 0.4991 cumulative IPC: 0.5428 (Simulation time: 00 hr 19 min 18 sec)
Heartbeat CPU 0 instructions: 310000001 cycles: 266239625 heartbeat IPC: 0.4208 cumulative IPC: 0.5289 (Simulation time: 00 hr 20 min 56 sec)
Heartbeat CPU 0 instructions: 320000001 cycles: 293573014 heartbeat IPC: 0.3659 cumulative IPC: 0.5099 (Simulation time: 00 hr 22 min 47 sec)
Heartbeat CPU 0 instructions: 330000002 cycles: 315377768 heartbeat IPC: 0.4586 cumulative IPC: 0.5056 (Simulation time: 00 hr 24 min 15 sec)
Heartbeat CPU 0 instructions: 340000001 cycles: 331101769 heartbeat IPC: 0.636 cumulative IPC: 0.5131 (Simulation time: 00 hr 25 min 18 sec)
Heartbeat CPU 0 instructions: 350000004 cycles: 359152219 heartbeat IPC: 0.3565 cumulative IPC: 0.4985 (Simulation time: 00 hr 27 min 05 sec)
Heartbeat CPU 0 instructions: 360000000 cycles: 385889972 heartbeat IPC: 0.374 cumulative IPC: 0.4883 (Simulation time: 00 hr 28 min 46 sec)
Heartbeat CPU 0 instructions: 370000000 cycles: 407027086 heartbeat IPC: 0.4731 cumulative IPC: 0.4874 (Simulation time: 00 hr 30 min 08 sec)
Heartbeat CPU 0 instructions: 380000000 cycles: 427095002 heartbeat IPC: 0.4983 cumulative IPC: 0.488 (Simulation time: 00 hr 31 min 27 sec)
Heartbeat CPU 0 instructions: 390000000 cycles: 449547996 heartbeat IPC: 0.4454 cumulative IPC: 0.4856 (Simulation time: 00 hr 32 min 54 sec)
Heartbeat CPU 0 instructions: 400000001 cycles: 473522896 heartbeat IPC: 0.4171 cumulative IPC: 0.4816 (Simulation time: 00 hr 34 min 25 sec)
Heartbeat CPU 0 instructions: 410000001 cycles: 490664497 heartbeat IPC: 0.5834 cumulative IPC: 0.4857 (Simulation time: 00 hr 35 min 34 sec)
Heartbeat CPU 0 instructions: 420000002 cycles: 507998096 heartbeat IPC: 0.5769 cumulative IPC: 0.4892 (Simulation time: 00 hr 36 min 43 sec)
Heartbeat CPU 0 instructions: 430000001 cycles: 531355709 heartbeat IPC: 0.4281 cumulative IPC: 0.4862 (Simulation time: 00 hr 38 min 12 sec)
Heartbeat CPU 0 instructions: 440000002 cycles: 553874829 heartbeat IPC: 0.4441 cumulative IPC: 0.4842 (Simulation time: 00 hr 39 min 39 sec)
Heartbeat CPU 0 instructions: 450000002 cycles: 574252439 heartbeat IPC: 0.4907 cumulative IPC: 0.4845 (Simulation time: 00 hr 40 min 58 sec)
Heartbeat CPU 0 instructions: 460000000 cycles: 588662933 heartbeat IPC: 0.6939 cumulative IPC: 0.4902 (Simulation time: 00 hr 41 min 56 sec)
Heartbeat CPU 0 instructions: 470000002 cycles: 607101899 heartbeat IPC: 0.5423 cumulative IPC: 0.4919 (Simulation time: 00 hr 43 min 08 sec)
Heartbeat CPU 0 instructions: 480000000 cycles: 635195668 heartbeat IPC: 0.356 cumulative IPC: 0.4853 (Simulation time: 00 hr 44 min 54 sec)
Heartbeat CPU 0 instructions: 490000000 cycles: 657597842 heartbeat IPC: 0.4464 cumulative IPC: 0.4839 (Simulation time: 00 hr 46 min 18 sec)
Heartbeat CPU 0 instructions: 500000000 cycles: 678778967 heartbeat IPC: 0.4721 cumulative IPC: 0.4835 (Simulation time: 00 hr 47 min 37 sec)
Heartbeat CPU 0 instructions: 510000000 cycles: 700500394 heartbeat IPC: 0.4604 cumulative IPC: 0.4827 (Simulation time: 00 hr 48 min 57 sec)
Heartbeat CPU 0 instructions: 520000000 cycles: 727110429 heartbeat IPC: 0.3758 cumulative IPC: 0.4784 (Simulation time: 00 hr 50 min 36 sec)
Heartbeat CPU 0 instructions: 530000001 cycles: 746169498 heartbeat IPC: 0.5247 cumulative IPC: 0.4797 (Simulation time: 00 hr 51 min 49 sec)
Heartbeat CPU 0 instructions: 540000003 cycles: 760622890 heartbeat IPC: 0.6919 cumulative IPC: 0.4841 (Simulation time: 00 hr 52 min 47 sec)
Heartbeat CPU 0 instructions: 550000000 cycles: 785728592 heartbeat IPC: 0.3983 cumulative IPC: 0.4811 (Simulation time: 00 hr 54 min 19 sec)
Heartbeat CPU 0 instructions: 560000004 cycles: 806688339 heartbeat IPC: 0.4771 cumulative IPC: 0.481 (Simulation time: 00 hr 55 min 37 sec)
Heartbeat CPU 0 instructions: 570000003 cycles: 824504366 heartbeat IPC: 0.5613 cumulative IPC: 0.4829 (Simulation time: 00 hr 56 min 46 sec)
Heartbeat CPU 0 instructions: 580000001 cycles: 850844700 heartbeat IPC: 0.3796 cumulative IPC: 0.4794 (Simulation time: 00 hr 58 min 23 sec)
Heartbeat CPU 0 instructions: 590000001 cycles: 872439287 heartbeat IPC: 0.4631 cumulative IPC: 0.479 (Simulation time: 00 hr 59 min 43 sec)
Heartbeat CPU 0 instructions: 600000002 cycles: 894666886 heartbeat IPC: 0.4499 cumulative IPC: 0.4782 (Simulation time: 01 hr 01 min 04 sec)
Heartbeat CPU 0 instructions: 610000003 cycles: 914226193 heartbeat IPC: 0.5113 cumulative IPC: 0.479 (Simulation time: 01 hr 02 min 16 sec)
Heartbeat CPU 0 instructions: 620000002 cycles: 936193054 heartbeat IPC: 0.4552 cumulative IPC: 0.4784 (Simulation time: 01 hr 03 min 37 sec)
Heartbeat CPU 0 instructions: 630000000 cycles: 956866984 heartbeat IPC: 0.4837 cumulative IPC: 0.4785 (Simulation time: 01 hr 04 min 53 sec)
Heartbeat CPU 0 instructions: 640000000 cycles: 983689382 heartbeat IPC: 0.3728 cumulative IPC: 0.4755 (Simulation time: 01 hr 06 min 30 sec)
Heartbeat CPU 0 instructions: 650000001 cycles: 1001298310 heartbeat IPC: 0.5679 cumulative IPC: 0.4772 (Simulation time: 01 hr 07 min 35 sec)
Heartbeat CPU 0 instructions: 660000002 cycles: 1018440535 heartbeat IPC: 0.5834 cumulative IPC: 0.4791 (Simulation time: 01 hr 08 min 39 sec)
Heartbeat CPU 0 instructions: 670000004 cycles: 1040402697 heartbeat IPC: 0.4553 cumulative IPC: 0.4785 (Simulation time: 01 hr 10 min 00 sec)
Heartbeat CPU 0 instructions: 680000001 cycles: 1056606911 heartbeat IPC: 0.6171 cumulative IPC: 0.4808 (Simulation time: 01 hr 11 min 02 sec)
Heartbeat CPU 0 instructions: 690000002 cycles: 1079796138 heartbeat IPC: 0.4312 cumulative IPC: 0.4797 (Simulation time: 01 hr 12 min 28 sec)
Heartbeat CPU 0 instructions: 700000000 cycles: 1102310099 heartbeat IPC: 0.4442 cumulative IPC: 0.4789 (Simulation time: 01 hr 13 min 54 sec)
Simulation finished CPU 0 instructions: 500000000 cycles: 1044054431 cumulative IPC: 0.4789 (Simulation time: 01 hr 13 min 54 sec)
Simulation complete CPU 0 instructions: 500000000 cycles: 1044054431 cumulative IPC: 0.4789 (Simulation time: 01 hr 13 min 54 sec)

ChampSim completed all CPUs

=== Simulation ===
CPU 0 runs /home/anishk/Downloads/605.mcf_s-472B.champsimtrace.xz
Region of Interest Statistics

CPU 0 cumulative IPC: 0.4789 instructions: 500000000 cycles: 1044054431
CPU 0 Branch Prediction Accuracy: 98.63% MPKI: 1.884 Average ROB Occupancy at Mispredict: 99.26
Branch type MPKI
BRANCH_DIRECT_JUMP: 0
BRANCH_INDIRECT: 0
BRANCH_CONDITIONAL: 1.88
BRANCH_DIRECT_CALL: 2e-06
BRANCH_INDIRECT_CALL: 0
BRANCH_RETURN: 2e-06

LLC TOTAL        ACCESS:   29665829 HIT:    2131638 MISS:   27534191
LLC LOAD         ACCESS:   26367239 HIT:      18018 MISS:   26349221
LLC RFO          ACCESS:    1145352 HIT:        350 MISS:    1145002
LLC PREFETCH     ACCESS:          0 HIT:          0 MISS:          0
LLC WRITE        ACCESS:    2114874 HIT:    2107863 MISS:       7011
LLC TRANSLATION  ACCESS:      38364 HIT:       5407 MISS:      32957
LLC PREFETCH REQUESTED:          0 ISSUED:          0 USEFUL:          0 USELESS:          0
LLC AVERAGE MISS LATENCY: 383.6 cycles
cpu0_DTLB TOTAL        ACCESS:  138904864 HIT:  133012727 MISS:    5892137
cpu0_DTLB LOAD         ACCESS:  138904864 HIT:  133012727 MISS:    5892137
cpu0_DTLB RFO          ACCESS:          0 HIT:          0 MISS:          0
cpu0_DTLB PREFETCH     ACCESS:          0 HIT:          0 MISS:          0
cpu0_DTLB WRITE        ACCESS:          0 HIT:          0 MISS:          0
cpu0_DTLB TRANSLATION  ACCESS:          0 HIT:          0 MISS:          0
cpu0_DTLB PREFETCH REQUESTED:          0 ISSUED:          0 USEFUL:          0 USELESS:          0
cpu0_DTLB AVERAGE MISS LATENCY: 10.22 cycles
cpu0_ITLB TOTAL        ACCESS:         16 HIT:         16 MISS:          0
cpu0_ITLB LOAD         ACCESS:         16 HIT:         16 MISS:          0
cpu0_ITLB RFO          ACCESS:          0 HIT:          0 MISS:          0
cpu0_ITLB PREFETCH     ACCESS:          0 HIT:          0 MISS:          0
cpu0_ITLB WRITE        ACCESS:          0 HIT:          0 MISS:          0
cpu0_ITLB TRANSLATION  ACCESS:          0 HIT:          0 MISS:          0
cpu0_ITLB PREFETCH REQUESTED:          0 ISSUED:          0 USEFUL:          0 USELESS:          0
cpu0_ITLB AVERAGE MISS LATENCY: -nan cycles
cpu0_L1D TOTAL        ACCESS:  201029749 HIT:  166307106 MISS:   34722643
cpu0_L1D LOAD         ACCESS:   92868081 HIT:   63516753 MISS:   29351328
cpu0_L1D RFO          ACCESS:          0 HIT:          0 MISS:          0
cpu0_L1D PREFETCH     ACCESS:          0 HIT:          0 MISS:          0
cpu0_L1D WRITE        ACCESS:  107488167 HIT:  102259040 MISS:    5229127
cpu0_L1D TRANSLATION  ACCESS:     673501 HIT:     531313 MISS:     142188
cpu0_L1D PREFETCH REQUESTED:          0 ISSUED:          0 USEFUL:          0 USELESS:          0
cpu0_L1D AVERAGE MISS LATENCY: 326.8 cycles
cpu0_L1I TOTAL        ACCESS:         19 HIT:          5 MISS:         14
cpu0_L1I LOAD         ACCESS:         19 HIT:          5 MISS:         14
cpu0_L1I RFO          ACCESS:          0 HIT:          0 MISS:          0
cpu0_L1I PREFETCH     ACCESS:          0 HIT:          0 MISS:          0
cpu0_L1I WRITE        ACCESS:          0 HIT:          0 MISS:          0
cpu0_L1I TRANSLATION  ACCESS:          0 HIT:          0 MISS:          0
cpu0_L1I PREFETCH REQUESTED:          0 ISSUED:          0 USEFUL:          0 USELESS:          0
cpu0_L1I AVERAGE MISS LATENCY: 146.3 cycles
cpu0_L2C TOTAL        ACCESS:   30447475 HIT:    2885935 MISS:   27561540
cpu0_L2C LOAD         ACCESS:   26667393 HIT:     300154 MISS:   26367239
cpu0_L2C RFO          ACCESS:    1230523 HIT:      85171 MISS:    1145352
cpu0_L2C PREFETCH     ACCESS:          0 HIT:          0 MISS:          0
cpu0_L2C WRITE        ACCESS:    2407603 HIT:    2397018 MISS:      10585
cpu0_L2C TRANSLATION  ACCESS:     141956 HIT:     103592 MISS:      38364
cpu0_L2C PREFETCH REQUESTED:          0 ISSUED:          0 USEFUL:          0 USELESS:          0
cpu0_L2C AVERAGE MISS LATENCY: 404.2 cycles
cpu0_STLB TOTAL        ACCESS:    1857204 HIT:    1184723 MISS:     672481
cpu0_STLB LOAD         ACCESS:    1857204 HIT:    1184723 MISS:     672481
cpu0_STLB RFO          ACCESS:          0 HIT:          0 MISS:          0
cpu0_STLB PREFETCH     ACCESS:          0 HIT:          0 MISS:          0
cpu0_STLB WRITE        ACCESS:          0 HIT:          0 MISS:          0
cpu0_STLB TRANSLATION  ACCESS:          0 HIT:          0 MISS:          0
cpu0_STLB PREFETCH REQUESTED:          0 ISSUED:          0 USEFUL:          0 USELESS:          0
cpu0_STLB AVERAGE MISS LATENCY: 189.4 cycles

DRAM Statistics

Channel 0 RQ ROW_BUFFER_HIT:   19129738
  ROW_BUFFER_MISS:    8396533
 AVG DBUS CONGESTED CYCLE: 3.959
WQ ROW_BUFFER_HIT: Channel 0 
  ROW_BUFFER_MISS:     271594
  FULL:    1829047
[?2004h]0;anishk@wellsfargo-OptiPlex-5090: ~/ChampSim[01;32manishk@wellsfargo-OptiPlex