Script started on 2023-10-11 11:09:21+05:30 [TERM="xterm-256color" TTY="/dev/pts/18" COLUMNS="173" LINES="23"]
[?2004h]0;anishk@wellsfargo-OptiPlex-5090: ~/ChampSim[01;32manishk@wellsfargo-OptiPlex-5090[00m:[01;34m~/ChampSim[00m$ lscd Downloads/[7Pode .sudo ./list[5P./listcd build/sudo ./wgrib_main.c[5P./wgrib_main.c[8Pcd srcscript hybrid_tp50501.txtmake[K./config.sh champsim_config.jsonbin/champsim --warmup_instructions 200000000 --simulation_instructions 500000000 ~/Downloads/605.mcf_s-472B.champsimtrace.xz 
[?2004lWARNING: physical memory size is smaller than virtual memory size.
WARNING: option --warmup_instructions is deprecated. Use --warmup-instructions instead.
WARNING: option --simulation_instructions is deprecated. Use --simulation-instructions instead.

*** ChampSim Multicore Out-of-Order Simulator ***
Warmup Instructions: 200000000
Simulation Instructions: 500000000
Number of CPUs: 1
Page size: 4096

Off-chip DRAM Size: 4 GiB Channels: 1 Width: 64-bit Data Race: 3200 MT/s
Heartbeat CPU 0 instructions: 10000003 cycles: 2991600 heartbeat IPC: 3.343 cumulative IPC: 3.343 (Simulation time: 00 hr 00 min 20 sec)
Heartbeat CPU 0 instructions: 20000002 cycles: 5823336 heartbeat IPC: 3.531 cumulative IPC: 3.434 (Simulation time: 00 hr 00 min 41 sec)
Heartbeat CPU 0 instructions: 30000003 cycles: 8581205 heartbeat IPC: 3.626 cumulative IPC: 3.496 (Simulation time: 00 hr 01 min 02 sec)
Heartbeat CPU 0 instructions: 40000002 cycles: 11571187 heartbeat IPC: 3.345 cumulative IPC: 3.457 (Simulation time: 00 hr 01 min 22 sec)
Heartbeat CPU 0 instructions: 50000002 cycles: 14505648 heartbeat IPC: 3.408 cumulative IPC: 3.447 (Simulation time: 00 hr 01 min 42 sec)
Heartbeat CPU 0 instructions: 60000004 cycles: 17431528 heartbeat IPC: 3.418 cumulative IPC: 3.442 (Simulation time: 00 hr 02 min 02 sec)
Heartbeat CPU 0 instructions: 70000001 cycles: 20384915 heartbeat IPC: 3.386 cumulative IPC: 3.434 (Simulation time: 00 hr 02 min 23 sec)
Heartbeat CPU 0 instructions: 80000000 cycles: 23214797 heartbeat IPC: 3.534 cumulative IPC: 3.446 (Simulation time: 00 hr 02 min 45 sec)
Heartbeat CPU 0 instructions: 90000003 cycles: 26173585 heartbeat IPC: 3.38 cumulative IPC: 3.439 (Simulation time: 00 hr 03 min 07 sec)
Heartbeat CPU 0 instructions: 100000000 cycles: 29045100 heartbeat IPC: 3.482 cumulative IPC: 3.443 (Simulation time: 00 hr 03 min 28 sec)
Heartbeat CPU 0 instructions: 110000004 cycles: 32045122 heartbeat IPC: 3.333 cumulative IPC: 3.433 (Simulation time: 00 hr 03 min 49 sec)
Heartbeat CPU 0 instructions: 120000004 cycles: 34969446 heartbeat IPC: 3.42 cumulative IPC: 3.432 (Simulation time: 00 hr 04 min 11 sec)
Heartbeat CPU 0 instructions: 130000000 cycles: 37888872 heartbeat IPC: 3.425 cumulative IPC: 3.431 (Simulation time: 00 hr 04 min 33 sec)
Heartbeat CPU 0 instructions: 140000001 cycles: 40768010 heartbeat IPC: 3.473 cumulative IPC: 3.434 (Simulation time: 00 hr 04 min 55 sec)
Heartbeat CPU 0 instructions: 150000000 cycles: 43646599 heartbeat IPC: 3.474 cumulative IPC: 3.437 (Simulation time: 00 hr 05 min 16 sec)
Heartbeat CPU 0 instructions: 160000003 cycles: 46591861 heartbeat IPC: 3.395 cumulative IPC: 3.434 (Simulation time: 00 hr 05 min 39 sec)
Heartbeat CPU 0 instructions: 170000002 cycles: 49561198 heartbeat IPC: 3.368 cumulative IPC: 3.43 (Simulation time: 00 hr 06 min 00 sec)
Heartbeat CPU 0 instructions: 180000004 cycles: 52525098 heartbeat IPC: 3.374 cumulative IPC: 3.427 (Simulation time: 00 hr 06 min 22 sec)
Heartbeat CPU 0 instructions: 190000002 cycles: 55335937 heartbeat IPC: 3.558 cumulative IPC: 3.434 (Simulation time: 00 hr 06 min 45 sec)
Heartbeat CPU 0 instructions: 200000000 cycles: 58255800 heartbeat IPC: 3.425 cumulative IPC: 3.433 (Simulation time: 00 hr 07 min 07 sec)
Warmup finished CPU 0 instructions: 200000000 cycles: 58255801 cumulative IPC: 3.433 (Simulation time: 00 hr 07 min 07 sec)
Warmup complete CPU 0 instructions: 200000000 cycles: 58255801 cumulative IPC: 3.433 (Simulation time: 00 hr 07 min 07 sec)
Heartbeat CPU 0 instructions: 210000004 cycles: 77211839 heartbeat IPC: 0.5275 cumulative IPC: 0.5275 (Simulation time: 00 hr 08 min 26 sec)
Heartbeat CPU 0 instructions: 220000004 cycles: 98816310 heartbeat IPC: 0.4629 cumulative IPC: 0.4931 (Simulation time: 00 hr 09 min 53 sec)
Heartbeat CPU 0 instructions: 230000001 cycles: 119915549 heartbeat IPC: 0.474 cumulative IPC: 0.4865 (Simulation time: 00 hr 11 min 19 sec)
Heartbeat CPU 0 instructions: 240000001 cycles: 140014662 heartbeat IPC: 0.4975 cumulative IPC: 0.4892 (Simulation time: 00 hr 12 min 44 sec)
Heartbeat CPU 0 instructions: 250000000 cycles: 151652442 heartbeat IPC: 0.8593 cumulative IPC: 0.5354 (Simulation time: 00 hr 13 min 44 sec)
Heartbeat CPU 0 instructions: 260000000 cycles: 163990988 heartbeat IPC: 0.8105 cumulative IPC: 0.5675 (Simulation time: 00 hr 14 min 46 sec)
Heartbeat CPU 0 instructions: 270000000 cycles: 182751979 heartbeat IPC: 0.533 cumulative IPC: 0.5623 (Simulation time: 00 hr 15 min 57 sec)
Heartbeat CPU 0 instructions: 280000000 cycles: 205346797 heartbeat IPC: 0.4426 cumulative IPC: 0.5439 (Simulation time: 00 hr 17 min 15 sec)
Heartbeat CPU 0 instructions: 290000001 cycles: 223498558 heartbeat IPC: 0.5509 cumulative IPC: 0.5447 (Simulation time: 00 hr 18 min 26 sec)
Heartbeat CPU 0 instructions: 300000001 cycles: 243720119 heartbeat IPC: 0.4945 cumulative IPC: 0.5392 (Simulation time: 00 hr 19 min 50 sec)
Heartbeat CPU 0 instructions: 310000001 cycles: 267636487 heartbeat IPC: 0.4181 cumulative IPC: 0.5254 (Simulation time: 00 hr 21 min 28 sec)
Heartbeat CPU 0 instructions: 320000001 cycles: 295180215 heartbeat IPC: 0.3631 cumulative IPC: 0.5065 (Simulation time: 00 hr 23 min 17 sec)
Heartbeat CPU 0 instructions: 330000002 cycles: 317143232 heartbeat IPC: 0.4553 cumulative IPC: 0.5021 (Simulation time: 00 hr 24 min 44 sec)
Heartbeat CPU 0 instructions: 340000001 cycles: 333328944 heartbeat IPC: 0.6178 cumulative IPC: 0.509 (Simulation time: 00 hr 25 min 52 sec)
Heartbeat CPU 0 instructions: 350000004 cycles: 361629280 heartbeat IPC: 0.3534 cumulative IPC: 0.4944 (Simulation time: 00 hr 27 min 43 sec)
Heartbeat CPU 0 instructions: 360000000 cycles: 388601935 heartbeat IPC: 0.3707 cumulative IPC: 0.4843 (Simulation time: 00 hr 29 min 23 sec)
Heartbeat CPU 0 instructions: 370000000 cycles: 409929403 heartbeat IPC: 0.4689 cumulative IPC: 0.4834 (Simulation time: 00 hr 30 min 46 sec)
Heartbeat CPU 0 instructions: 380000000 cycles: 430356340 heartbeat IPC: 0.4895 cumulative IPC: 0.4837 (Simulation time: 00 hr 32 min 06 sec)
Heartbeat CPU 0 instructions: 390000000 cycles: 453054732 heartbeat IPC: 0.4406 cumulative IPC: 0.4813 (Simulation time: 00 hr 33 min 30 sec)
Heartbeat CPU 0 instructions: 400000000 cycles: 477303062 heartbeat IPC: 0.4124 cumulative IPC: 0.4773 (Simulation time: 00 hr 35 min 00 sec)
Heartbeat CPU 0 instructions: 410000001 cycles: 494643977 heartbeat IPC: 0.5767 cumulative IPC: 0.4812 (Simulation time: 00 hr 36 min 08 sec)
Heartbeat CPU 0 instructions: 420000002 cycles: 512262038 heartbeat IPC: 0.5676 cumulative IPC: 0.4846 (Simulation time: 00 hr 37 min 17 sec)
Heartbeat CPU 0 instructions: 430000001 cycles: 535827484 heartbeat IPC: 0.4244 cumulative IPC: 0.4816 (Simulation time: 00 hr 38 min 49 sec)
Heartbeat CPU 0 instructions: 440000002 cycles: 558481317 heartbeat IPC: 0.4414 cumulative IPC: 0.4798 (Simulation time: 00 hr 40 min 14 sec)
Heartbeat CPU 0 instructions: 450000000 cycles: 579204072 heartbeat IPC: 0.4826 cumulative IPC: 0.4799 (Simulation time: 00 hr 41 min 32 sec)
Heartbeat CPU 0 instructions: 460000000 cycles: 593958941 heartbeat IPC: 0.6777 cumulative IPC: 0.4853 (Simulation time: 00 hr 42 min 31 sec)
Heartbeat CPU 0 instructions: 470000002 cycles: 612648444 heartbeat IPC: 0.5351 cumulative IPC: 0.487 (Simulation time: 00 hr 43 min 43 sec)
Heartbeat CPU 0 instructions: 480000000 cycles: 640790930 heartbeat IPC: 0.3553 cumulative IPC: 0.4807 (Simulation time: 00 hr 45 min 30 sec)
Heartbeat CPU 0 instructions: 490000000 cycles: 663381002 heartbeat IPC: 0.4427 cumulative IPC: 0.4792 (Simulation time: 00 hr 46 min 55 sec)
Heartbeat CPU 0 instructions: 500000000 cycles: 684811027 heartbeat IPC: 0.4666 cumulative IPC: 0.4788 (Simulation time: 00 hr 48 min 15 sec)
Heartbeat CPU 0 instructions: 510000000 cycles: 706678195 heartbeat IPC: 0.4573 cumulative IPC: 0.4781 (Simulation time: 00 hr 49 min 36 sec)
Heartbeat CPU 0 instructions: 520000000 cycles: 733554379 heartbeat IPC: 0.3721 cumulative IPC: 0.4739 (Simulation time: 00 hr 51 min 17 sec)
Heartbeat CPU 0 instructions: 530000001 cycles: 752994124 heartbeat IPC: 0.5144 cumulative IPC: 0.475 (Simulation time: 00 hr 52 min 32 sec)
Heartbeat CPU 0 instructions: 540000003 cycles: 767846920 heartbeat IPC: 0.6733 cumulative IPC: 0.4791 (Simulation time: 00 hr 53 min 31 sec)
Heartbeat CPU 0 instructions: 550000000 cycles: 793283181 heartbeat IPC: 0.3931 cumulative IPC: 0.4762 (Simulation time: 00 hr 55 min 04 sec)
Heartbeat CPU 0 instructions: 560000004 cycles: 814433391 heartbeat IPC: 0.4728 cumulative IPC: 0.4761 (Simulation time: 00 hr 56 min 22 sec)
Heartbeat CPU 0 instructions: 570000003 cycles: 832506984 heartbeat IPC: 0.5533 cumulative IPC: 0.4779 (Simulation time: 00 hr 57 min 31 sec)
Heartbeat CPU 0 instructions: 580000001 cycles: 858980167 heartbeat IPC: 0.3777 cumulative IPC: 0.4746 (Simulation time: 00 hr 59 min 09 sec)
Heartbeat CPU 0 instructions: 590000001 cycles: 880873524 heartbeat IPC: 0.4568 cumulative IPC: 0.4741 (Simulation time: 01 hr 00 min 31 sec)
Heartbeat CPU 0 instructions: 600000002 cycles: 903289351 heartbeat IPC: 0.4461 cumulative IPC: 0.4734 (Simulation time: 01 hr 01 min 53 sec)
Heartbeat CPU 0 instructions: 610000002 cycles: 923084323 heartbeat IPC: 0.5052 cumulative IPC: 0.4741 (Simulation time: 01 hr 03 min 06 sec)
Heartbeat CPU 0 instructions: 620000002 cycles: 945276953 heartbeat IPC: 0.4506 cumulative IPC: 0.4735 (Simulation time: 01 hr 04 min 28 sec)
Heartbeat CPU 0 instructions: 630000000 cycles: 966278034 heartbeat IPC: 0.4762 cumulative IPC: 0.4736 (Simulation time: 01 hr 05 min 46 sec)
Heartbeat CPU 0 instructions: 640000000 cycles: 993413120 heartbeat IPC: 0.3685 cumulative IPC: 0.4705 (Simulation time: 01 hr 07 min 26 sec)
Heartbeat CPU 0 instructions: 650000001 cycles: 1011251212 heartbeat IPC: 0.5606 cumulative IPC: 0.4722 (Simulation time: 01 hr 08 min 34 sec)
Heartbeat CPU 0 instructions: 660000002 cycles: 1028772038 heartbeat IPC: 0.5707 cumulative IPC: 0.474 (Simulation time: 01 hr 09 min 40 sec)
Heartbeat CPU 0 instructions: 670000004 cycles: 1051195277 heartbeat IPC: 0.446 cumulative IPC: 0.4733 (Simulation time: 01 hr 11 min 05 sec)
Heartbeat CPU 0 instructions: 680000000 cycles: 1067700213 heartbeat IPC: 0.6059 cumulative IPC: 0.4755 (Simulation time: 01 hr 12 min 10 sec)
Heartbeat CPU 0 instructions: 690000002 cycles: 1091024682 heartbeat IPC: 0.4287 cumulative IPC: 0.4745 (Simulation time: 01 hr 13 min 37 sec)
Heartbeat CPU 0 instructions: 700000000 cycles: 1113791331 heartbeat IPC: 0.4392 cumulative IPC: 0.4737 (Simulation time: 01 hr 15 min 02 sec)
Simulation finished CPU 0 instructions: 500000000 cycles: 1055535531 cumulative IPC: 0.4737 (Simulation time: 01 hr 15 min 02 sec)
Simulation complete CPU 0 instructions: 500000000 cycles: 1055535531 cumulative IPC: 0.4737 (Simulation time: 01 hr 15 min 02 sec)

ChampSim completed all CPUs

=== Simulation ===
CPU 0 runs /home/anishk/Downloads/605.mcf_s-472B.champsimtrace.xz
Region of Interest Statistics

CPU 0 cumulative IPC: 0.4737 instructions: 500000000 cycles: 1055535531
CPU 0 Branch Prediction Accuracy: 98.46% MPKI: 2.115 Average ROB Occupancy at Mispredict: 108.8
Branch type MPKI
BRANCH_DIRECT_JUMP: 0
BRANCH_INDIRECT: 0
BRANCH_CONDITIONAL: 2.12
BRANCH_DIRECT_CALL: 2e-06
BRANCH_INDIRECT_CALL: 0
BRANCH_RETURN: 2e-06

LLC TOTAL        ACCESS:   29664508 HIT:    2131231 MISS:   27533277
LLC LOAD         ACCESS:   26367163 HIT:      17951 MISS:   26349212
LLC RFO          ACCESS:    1145354 HIT:        349 MISS:    1145005
LLC PREFETCH     ACCESS:          0 HIT:          0 MISS:          0
LLC WRITE        ACCESS:    2114804 HIT:    2107772 MISS:       7032
LLC TRANSLATION  ACCESS:      37187 HIT:       5159 MISS:      32028
LLC PREFETCH REQUESTED:          0 ISSUED:          0 USEFUL:          0 USELESS:          0
LLC AVERAGE MISS LATENCY: 380.4 cycles
cpu0_DTLB TOTAL        ACCESS:  140523612 HIT:  134575631 MISS:    5947981
cpu0_DTLB LOAD         ACCESS:  140523612 HIT:  134575631 MISS:    5947981
cpu0_DTLB RFO          ACCESS:          0 HIT:          0 MISS:          0
cpu0_DTLB PREFETCH     ACCESS:          0 HIT:          0 MISS:          0
cpu0_DTLB WRITE        ACCESS:          0 HIT:          0 MISS:          0
cpu0_DTLB TRANSLATION  ACCESS:          0 HIT:          0 MISS:          0
cpu0_DTLB PREFETCH REQUESTED:          0 ISSUED:          0 USEFUL:          0 USELESS:          0
cpu0_DTLB AVERAGE MISS LATENCY: 9.896 cycles
cpu0_ITLB TOTAL        ACCESS:         18 HIT:         18 MISS:          0
cpu0_ITLB LOAD         ACCESS:         18 HIT:         18 MISS:          0
cpu0_ITLB RFO          ACCESS:          0 HIT:          0 MISS:          0
cpu0_ITLB PREFETCH     ACCESS:          0 HIT:          0 MISS:          0
cpu0_ITLB WRITE        ACCESS:          0 HIT:          0 MISS:          0
cpu0_ITLB TRANSLATION  ACCESS:          0 HIT:          0 MISS:          0
cpu0_ITLB PREFETCH REQUESTED:          0 ISSUED:          0 USEFUL:          0 USELESS:          0
cpu0_ITLB AVERAGE MISS LATENCY: -nan cycles
cpu0_L1D TOTAL        ACCESS:  203645282 HIT:  168830352 MISS:   34814930
cpu0_L1D LOAD         ACCESS:   95192406 HIT:   65741805 MISS:   29450601
cpu0_L1D RFO          ACCESS:          0 HIT:          0 MISS:          0
cpu0_L1D PREFETCH     ACCESS:          0 HIT:          0 MISS:          0
cpu0_L1D WRITE        ACCESS:  107779402 HIT:  102555890 MISS:    5223512
cpu0_L1D TRANSLATION  ACCESS:     673474 HIT:     532657 MISS:     140817
cpu0_L1D PREFETCH REQUESTED:          0 ISSUED:          0 USEFUL:          0 USELESS:          0
cpu0_L1D AVERAGE MISS LATENCY: 323.3 cycles
cpu0_L1I TOTAL        ACCESS:         20 HIT:          8 MISS:         12
cpu0_L1I LOAD         ACCESS:         20 HIT:          8 MISS:         12
cpu0_L1I RFO          ACCESS:          0 HIT:          0 MISS:          0
cpu0_L1I PREFETCH     ACCESS:          0 HIT:          0 MISS:          0
cpu0_L1I WRITE        ACCESS:          0 HIT:          0 MISS:          0
cpu0_L1I TRANSLATION  ACCESS:          0 HIT:          0 MISS:          0
cpu0_L1I PREFETCH REQUESTED:          0 ISSUED:          0 USEFUL:          0 USELESS:          0
cpu0_L1I AVERAGE MISS LATENCY: 169.7 cycles
cpu0_L2C TOTAL        ACCESS:   30446118 HIT:    2885854 MISS:   27560264
cpu0_L2C LOAD         ACCESS:   26667393 HIT:     300230 MISS:   26367163
cpu0_L2C RFO          ACCESS:    1230523 HIT:      85169 MISS:    1145354
cpu0_L2C PREFETCH     ACCESS:          0 HIT:          0 MISS:          0
cpu0_L2C WRITE        ACCESS:    2407607 HIT:    2397047 MISS:      10560
cpu0_L2C TRANSLATION  ACCESS:     140595 HIT:     103408 MISS:      37187
cpu0_L2C PREFETCH REQUESTED:          0 ISSUED:          0 USEFUL:          0 USELESS:          0
cpu0_L2C AVERAGE MISS LATENCY: 401 cycles
cpu0_STLB TOTAL        ACCESS:    1862991 HIT:    1190523 MISS:     672468
cpu0_STLB LOAD         ACCESS:    1862991 HIT:    1190523 MISS:     672468
cpu0_STLB RFO          ACCESS:          0 HIT:          0 MISS:          0
cpu0_STLB PREFETCH     ACCESS:          0 HIT:          0 MISS:          0
cpu0_STLB WRITE        ACCESS:          0 HIT:          0 MISS:          0
cpu0_STLB TRANSLATION  ACCESS:          0 HIT:          0 MISS:          0
cpu0_STLB PREFETCH REQUESTED:          0 ISSUED:          0 USEFUL:          0 USELESS:          0
cpu0_STLB AVERAGE MISS LATENCY: 187.6 cycles

DRAM Statistics

Channel 0 RQ ROW_BUFFER_HIT:   19167978
  ROW_BUFFER_MISS:    8357374
 AVG DBUS CONGESTED CYCLE: 3.96
WQ ROW_BUFFER_HI