Script started on 2023-10-11 12:38:03+05:30 [TERM="xterm-256color" TTY="/dev/pts/19" COLUMNS="173" LINES="23"]
[?2004h]0;anishk@wellsfargo-OptiPlex-5090: ~/ChampSim[01;32manishk@wellsfargo-OptiPlex-5090[00m:[01;34m~/ChampSim[00m$ bin/champsim --warmup_instructions 200000000 --simulation_instructions 500000000 ~/Downloads/602.gcc_s-2226B.champsimtrace.xz [1P5.mcf_s-472[C[C[C[C[C[C[C[C[C[C[C[C[C[C[C[C[C[C[C[1@2.gcc_s-2226[C[C[C[C[C[C[C[C[C[C[C[C[C[C[C[C[C[C[C[1P5.mcf_s-472[C[C[C[C[C[C[C[C[C[C[C[C[C[C[C[C[C[C[C25.x264_s-18[C[C[C[C[C[C[C[C[C[C[C[C[C[C[C[C[C[C[C
[?2004lWARNING: physical memory size is smaller than virtual memory size.
WARNING: option --warmup_instructions is deprecated. Use --warmup-instructions instead.
WARNING: option --simulation_instructions is deprecated. Use --simulation-instructions instead.

*** ChampSim Multicore Out-of-Order Simulator ***
Warmup Instructions: 200000000
Simulation Instructions: 500000000
Number of CPUs: 1
Page size: 4096

Off-chip DRAM Size: 4 GiB Channels: 1 Width: 64-bit Data Race: 3200 MT/s
Heartbeat CPU 0 instructions: 10000003 cycles: 2500043 heartbeat IPC: 4 cumulative IPC: 4 (Simulation time: 00 hr 00 min 18 sec)
Heartbeat CPU 0 instructions: 20000003 cycles: 5000043 heartbeat IPC: 4 cumulative IPC: 4 (Simulation time: 00 hr 00 min 38 sec)
Heartbeat CPU 0 instructions: 30000002 cycles: 7500235 heartbeat IPC: 4 cumulative IPC: 4 (Simulation time: 00 hr 00 min 58 sec)
Heartbeat CPU 0 instructions: 40000002 cycles: 10000235 heartbeat IPC: 4 cumulative IPC: 4 (Simulation time: 00 hr 01 min 15 sec)
Heartbeat CPU 0 instructions: 50000002 cycles: 12500235 heartbeat IPC: 4 cumulative IPC: 4 (Simulation time: 00 hr 01 min 34 sec)
Heartbeat CPU 0 instructions: 60000002 cycles: 15000235 heartbeat IPC: 4 cumulative IPC: 4 (Simulation time: 00 hr 01 min 53 sec)
Heartbeat CPU 0 instructions: 70000002 cycles: 17500235 heartbeat IPC: 4 cumulative IPC: 4 (Simulation time: 00 hr 02 min 12 sec)
Heartbeat CPU 0 instructions: 80000002 cycles: 20000235 heartbeat IPC: 4 cumulative IPC: 4 (Simulation time: 00 hr 02 min 30 sec)
Heartbeat CPU 0 instructions: 90000002 cycles: 22500235 heartbeat IPC: 4 cumulative IPC: 4 (Simulation time: 00 hr 02 min 49 sec)
Heartbeat CPU 0 instructions: 100000002 cycles: 25000235 heartbeat IPC: 4 cumulative IPC: 4 (Simulation time: 00 hr 03 min 08 sec)
Heartbeat CPU 0 instructions: 110000002 cycles: 27500235 heartbeat IPC: 4 cumulative IPC: 4 (Simulation time: 00 hr 03 min 26 sec)
Heartbeat CPU 0 instructions: 120000002 cycles: 30000235 heartbeat IPC: 4 cumulative IPC: 4 (Simulation time: 00 hr 03 min 44 sec)
Heartbeat CPU 0 instructions: 130000002 cycles: 32500235 heartbeat IPC: 4 cumulative IPC: 4 (Simulation time: 00 hr 04 min 03 sec)
Heartbeat CPU 0 instructions: 140000003 cycles: 35003666 heartbeat IPC: 3.995 cumulative IPC: 4 (Simulation time: 00 hr 04 min 21 sec)
Heartbeat CPU 0 instructions: 150000001 cycles: 37517413 heartbeat IPC: 3.978 cumulative IPC: 3.998 (Simulation time: 00 hr 04 min 40 sec)
Heartbeat CPU 0 instructions: 160000000 cycles: 40017799 heartbeat IPC: 3.999 cumulative IPC: 3.998 (Simulation time: 00 hr 05 min 00 sec)
Heartbeat CPU 0 instructions: 170000000 cycles: 42518301 heartbeat IPC: 3.999 cumulative IPC: 3.998 (Simulation time: 00 hr 05 min 19 sec)
Heartbeat CPU 0 instructions: 180000000 cycles: 45018892 heartbeat IPC: 3.999 cumulative IPC: 3.998 (Simulation time: 00 hr 05 min 37 sec)
Heartbeat CPU 0 instructions: 190000002 cycles: 47519495 heartbeat IPC: 3.999 cumulative IPC: 3.998 (Simulation time: 00 hr 05 min 56 sec)
Heartbeat CPU 0 instructions: 200000000 cycles: 50019864 heartbeat IPC: 3.999 cumulative IPC: 3.998 (Simulation time: 00 hr 06 min 14 sec)
Warmup finished CPU 0 instructions: 200000000 cycles: 50019865 cumulative IPC: 3.998 (Simulation time: 00 hr 06 min 14 sec)
Warmup complete CPU 0 instructions: 200000000 cycles: 50019865 cumulative IPC: 3.998 (Simulation time: 00 hr 06 min 14 sec)
Heartbeat CPU 0 instructions: 210000000 cycles: 53038331 heartbeat IPC: 3.313 cumulative IPC: 3.313 (Simulation time: 00 hr 06 min 37 sec)
Heartbeat CPU 0 instructions: 220000001 cycles: 56111565 heartbeat IPC: 3.254 cumulative IPC: 3.283 (Simulation time: 00 hr 07 min 00 sec)
Heartbeat CPU 0 instructions: 230000000 cycles: 59177254 heartbeat IPC: 3.262 cumulative IPC: 3.276 (Simulation time: 00 hr 07 min 23 sec)
Heartbeat CPU 0 instructions: 240000003 cycles: 62235727 heartbeat IPC: 3.27 cumulative IPC: 3.274 (Simulation time: 00 hr 07 min 46 sec)
Heartbeat CPU 0 instructions: 250000000 cycles: 65322254 heartbeat IPC: 3.24 cumulative IPC: 3.267 (Simulation time: 00 hr 08 min 09 sec)
Heartbeat CPU 0 instructions: 260000000 cycles: 68373944 heartbeat IPC: 3.277 cumulative IPC: 3.269 (Simulation time: 00 hr 08 min 32 sec)
Heartbeat CPU 0 instructions: 270000004 cycles: 71418760 heartbeat IPC: 3.284 cumulative IPC: 3.271 (Simulation time: 00 hr 08 min 55 sec)
Heartbeat CPU 0 instructions: 280000000 cycles: 74497328 heartbeat IPC: 3.248 cumulative IPC: 3.268 (Simulation time: 00 hr 09 min 18 sec)
Heartbeat CPU 0 instructions: 290000004 cycles: 77548986 heartbeat IPC: 3.277 cumulative IPC: 3.269 (Simulation time: 00 hr 09 min 41 sec)
Heartbeat CPU 0 instructions: 300000000 cycles: 80579200 heartbeat IPC: 3.3 cumulative IPC: 3.272 (Simulation time: 00 hr 10 min 04 sec)
Heartbeat CPU 0 instructions: 310000000 cycles: 83660212 heartbeat IPC: 3.246 cumulative IPC: 3.27 (Simulation time: 00 hr 10 min 28 sec)
Heartbeat CPU 0 instructions: 320000000 cycles: 86689381 heartbeat IPC: 3.301 cumulative IPC: 3.272 (Simulation time: 00 hr 10 min 51 sec)
Heartbeat CPU 0 instructions: 330000003 cycles: 89713077 heartbeat IPC: 3.307 cumulative IPC: 3.275 (Simulation time: 00 hr 11 min 13 sec)
Heartbeat CPU 0 instructions: 340000004 cycles: 92729342 heartbeat IPC: 3.315 cumulative IPC: 3.278 (Simulation time: 00 hr 11 min 36 sec)
Heartbeat CPU 0 instructions: 350000003 cycles: 95746401 heartbeat IPC: 3.314 cumulative IPC: 3.28 (Simulation time: 00 hr 11 min 58 sec)
Heartbeat CPU 0 instructions: 360000001 cycles: 98756318 heartbeat IPC: 3.322 cumulative IPC: 3.283 (Simulation time: 00 hr 12 min 21 sec)
Heartbeat CPU 0 instructions: 370000002 cycles: 101768986 heartbeat IPC: 3.319 cumulative IPC: 3.285 (Simulation time: 00 hr 12 min 44 sec)
Heartbeat CPU 0 instructions: 380000001 cycles: 104792833 heartbeat IPC: 3.307 cumulative IPC: 3.286 (Simulation time: 00 hr 13 min 07 sec)
Heartbeat CPU 0 instructions: 390000004 cycles: 107824894 heartbeat IPC: 3.298 cumulative IPC: 3.287 (Simulation time: 00 hr 13 min 30 sec)
Heartbeat CPU 0 instructions: 400000000 cycles: 116372085 heartbeat IPC: 1.17 cumulative IPC: 3.014 (Simulation time: 00 hr 14 min 13 sec)
Heartbeat CPU 0 instructions: 410000001 cycles: 119103113 heartbeat IPC: 3.662 cumulative IPC: 3.04 (Simulation time: 00 hr 14 min 35 sec)
Heartbeat CPU 0 instructions: 420000001 cycles: 122199928 heartbeat IPC: 3.229 cumulative IPC: 3.048 (Simulation time: 00 hr 15 min 00 sec)
Heartbeat CPU 0 instructions: 430000000 cycles: 125671518 heartbeat IPC: 2.881 cumulative IPC: 3.04 (Simulation time: 00 hr 15 min 25 sec)
Heartbeat CPU 0 instructions: 440000000 cycles: 128616864 heartbeat IPC: 3.395 cumulative IPC: 3.054 (Simulation time: 00 hr 15 min 48 sec)
Heartbeat CPU 0 instructions: 450000004 cycles: 131541561 heartbeat IPC: 3.419 cumulative IPC: 3.067 (Simulation time: 00 hr 16 min 12 sec)
Heartbeat CPU 0 instructions: 460000003 cycles: 134537107 heartbeat IPC: 3.338 cumulative IPC: 3.076 (Simulation time: 00 hr 16 min 36 sec)
Heartbeat CPU 0 instructions: 470000000 cycles: 137533659 heartbeat IPC: 3.337 cumulative IPC: 3.085 (Simulation time: 00 hr 16 min 59 sec)
Heartbeat CPU 0 instructions: 480000001 cycles: 140501786 heartbeat IPC: 3.369 cumulative IPC: 3.095 (Simulation time: 00 hr 17 min 22 sec)
Heartbeat CPU 0 instructions: 490000002 cycles: 143542815 heartbeat IPC: 3.288 cumulative IPC: 3.101 (Simulation time: 00 hr 17 min 45 sec)
Heartbeat CPU 0 instructions: 500000002 cycles: 146512272 heartbeat IPC: 3.368 cumulative IPC: 3.109 (Simulation time: 00 hr 18 min 08 sec)
Heartbeat CPU 0 instructions: 510000003 cycles: 149489206 heartbeat IPC: 3.359 cumulative IPC: 3.117 (Simulation time: 00 hr 18 min 31 sec)
Heartbeat CPU 0 instructions: 520000002 cycles: 152417524 heartbeat IPC: 3.415 cumulative IPC: 3.125 (Simulation time: 00 hr 18 min 54 sec)
Heartbeat CPU 0 instructions: 530000003 cycles: 155412561 heartbeat IPC: 3.339 cumulative IPC: 3.131 (Simulation time: 00 hr 19 min 17 sec)
Heartbeat CPU 0 instructions: 540000000 cycles: 158383591 heartbeat IPC: 3.366 cumulative IPC: 3.138 (Simulation time: 00 hr 19 min 40 sec)
Heartbeat CPU 0 instructions: 550000001 cycles: 161320658 heartbeat IPC: 3.405 cumulative IPC: 3.145 (Simulation time: 00 hr 20 min 03 sec)
Heartbeat CPU 0 instructions: 560000003 cycles: 164273195 heartbeat IPC: 3.387 cumulative IPC: 3.151 (Simulation time: 00 hr 20 min 27 sec)
Heartbeat CPU 0 instructions: 570000000 cycles: 173001972 heartbeat IPC: 1.146 cumulative IPC: 3.009 (Simulation time: 00 hr 21 min 09 sec)
Heartbeat CPU 0 instructions: 580000001 cycles: 175776876 heartbeat IPC: 3.604 cumulative IPC: 3.022 (Simulation time: 00 hr 21 min 32 sec)
Heartbeat CPU 0 instructions: 590000003 cycles: 179194453 heartbeat IPC: 2.926 cumulative IPC: 3.019 (Simulation time: 00 hr 21 min 57 sec)
Heartbeat CPU 0 instructions: 600000001 cycles: 182481563 heartbeat IPC: 3.042 cumulative IPC: 3.02 (Simulation time: 00 hr 22 min 22 sec)
Heartbeat CPU 0 instructions: 610000004 cycles: 185762422 heartbeat IPC: 3.048 cumulative IPC: 3.02 (Simulation time: 00 hr 22 min 47 sec)
Heartbeat CPU 0 instructions: 620000000 cycles: 189035352 heartbeat IPC: 3.055 cumulative IPC: 3.021 (Simulation time: 00 hr 23 min 13 sec)
Heartbeat CPU 0 instructions: 630000001 cycles: 192338517 heartbeat IPC: 3.027 cumulative IPC: 3.021 (Simulation time: 00 hr 23 min 39 sec)
Heartbeat CPU 0 instructions: 640000002 cycles: 195616805 heartbeat IPC: 3.05 cumulative IPC: 3.022 (Simulation time: 00 hr 24 min 06 sec)
Heartbeat CPU 0 instructions: 650000003 cycles: 198898615 heartbeat IPC: 3.047 cumulative IPC: 3.023 (Simulation time: 00 hr 24 min 35 sec)
Heartbeat CPU 0 instructions: 660000001 cycles: 202167370 heartbeat IPC: 3.059 cumulative IPC: 3.023 (Simulation time: 00 hr 25 min 02 sec)
Heartbeat CPU 0 instructions: 670000002 cycles: 210283660 heartbeat IPC: 1.232 cumulative IPC: 2.933 (Simulation time: 00 hr 25 min 44 sec)
Heartbeat CPU 0 instructions: 680000001 cycles: 213233897 heartbeat IPC: 3.39 cumulative IPC: 2.941 (Simulation time: 00 hr 26 min 09 sec)
Heartbeat CPU 0 instructions: 690000000 cycles: 216670274 heartbeat IPC: 2.91 cumulative IPC: 2.94 (Simulation time: 00 hr 26 min 35 sec)
Heartbeat CPU 0 instructions: 700000000 cycles: 219954982 heartbeat IPC: 3.044 cumulative IPC: 2.942 (Simulation time: 00 hr 27 min 02 sec)
Simulation finished CPU 0 instructions: 500000000 cycles: 169935118 cumulative IPC: 2.942 (Simulation time: 00 hr 27 min 02 sec)
Simulation complete CPU 0 instructions: 500000000 cycles: 169935118 cumulative IPC: 2.942 (Simulation time: 00 hr 27 min 02 sec)

ChampSim completed all CPUs

=== Simulation ===
CPU 0 runs /home/anishk/Downloads/625.x264_s-18B.champsimtrace.xz
Region of Interest Statistics

CPU 0 cumulative IPC: 2.942 instructions: 500000000 cycles: 169935118
CPU 0 Branch Prediction Accuracy: 96.38% MPKI: 1.468 Average ROB Occupancy at Mispredict: 114.3
Branch type MPKI
BRANCH_DIRECT_JUMP: 0.00799
BRANCH_INDIRECT: 0.00133
BRANCH_CONDITIONAL: 1.31
BRANCH_DIRECT_CALL: 0.0279
BRANCH_INDIRECT_CALL: 0.0391
BRANCH_RETURN: 0.0861

LLC TOTAL        ACCESS:    1317543 HIT:     520595 MISS:     796948
LLC LOAD         ACCESS:     600341 HIT:     128142 MISS:     472199
LLC RFO          ACCESS:     323953 HIT:       1683 MISS:     322270
LLC PREFETCH     ACCESS:          0 HIT:          0 MISS:          0
LLC WRITE        ACCESS:     388569 HIT:     387552 MISS:       1017
LLC TRANSLATION  ACCESS:       4680 HIT:       3218 MISS:       1462
LLC PREFETCH REQUESTED:          0 ISSUED:          0 USEFUL:          0 USELESS:          0
LLC AVERAGE MISS LATENCY: 475.5 cycles
cpu0_DTLB TOTAL        ACCESS:   84411561 HIT:   82805916 MISS:    1605645
cpu0_DTLB LOAD         ACCESS:   84411561 HIT:   82805916 MISS:    1605645
cpu0_DTLB RFO          ACCESS:          0 HIT:          0 MISS:          0
cpu0_DTLB PREFETCH     ACCESS:          0 HIT:          0 MISS:          0
cpu0_DTLB WRITE        ACCESS:          0 HIT:          0 MISS:          0
cpu0_DTLB TRANSLATION  ACCESS:          0 HIT:          0 MISS:          0
cpu0_DTLB PREFETCH REQUESTED:          0 ISSUED:          0 USEFUL:          0 USELESS:          0
cpu0_DTLB AVERAGE MISS LATENCY: 3.774 cycles
cpu0_ITLB TOTAL        ACCESS:    7380500 HIT:    7375558 MISS:       4942
cpu0_ITLB LOAD         ACCESS:    7380500 HIT:    7375558 MISS:       4942
cpu0_ITLB RFO          ACCESS:          0 HIT:          0 MISS:          0
cpu0_ITLB PREFETCH     ACCESS:          0 HIT:          0 MISS:          0
cpu0_ITLB WRITE        ACCESS:          0 HIT:          0 MISS:          0
cpu0_ITLB TRANSLATION  ACCESS:          0 HIT:          0 MISS:          0
cpu0_ITLB PREFETCH REQUESTED:          0 ISSUED:          0 USEFUL:          0 USELESS:          0
cpu0_ITLB AVERAGE MISS LATENCY: 12.67 cycles
cpu0_L1D TOTAL        ACCESS:  111870385 HIT:  104979979 MISS:    6890406
cpu0_L1D LOAD         ACCESS:   74184079 HIT:   70442069 MISS:    3742010
cpu0_L1D RFO          ACCESS:          0 HIT:          0 MISS:          0
cpu0_L1D PREFETCH     ACCESS:          0 HIT:          0 MISS:          0
cpu0_L1D WRITE        ACCESS:   37674306 HIT:   34532605 MISS:    3141701
cpu0_L1D TRANSLATION  ACCESS:      12000 HIT:       5305 MISS:       6695
cpu0_L1D PREFETCH REQUESTED:          0 ISSUED:          0 USEFUL:          0 USELESS:          0
cpu0_L1D AVERAGE MISS LATENCY: 52.64 cycles
cpu0_L1I TOTAL        ACCESS:    8922697 HIT:    6206305 MISS:    2716392
cpu0_L1I LOAD         ACCESS:    8922697 HIT:    6206305 MISS:    2716392
cpu0_L1I RFO          ACCESS:          0 HIT:          0 MISS:          0
cpu0_L1I PREFETCH     ACCESS:          0 HIT:          0 MISS:          0
cpu0_L1I WRITE        ACCESS:          0 HIT:          0 MISS:          0
cpu0_L1I TRANSLATION  ACCESS:          0 HIT:          0 MISS:          0
cpu0_L1I PREFETCH REQUESTED:          0 ISSUED:          0 USEFUL:          0 USELESS:          0
cpu0_L1I AVERAGE MISS LATENCY: 5.768 cycles
cpu0_L2C TOTAL        ACCESS:    3581352 HIT:    2651726 MISS:     929626
cpu0_L2C LOAD         ACCESS:    2554271 HIT:    1953930 MISS:     600341
cpu0_L2C RFO          ACCESS:     459090 HIT:     135137 MISS:     323953
cpu0_L2C PREFETCH     ACCESS:          0 HIT:          0 MISS:          0
cpu0_L2C WRITE        ACCESS:     561423 HIT:     560771 MISS:        652
cpu0_L2C TRANSLATION  ACCESS:       6568 HIT:       1888 MISS:       4680
cpu0_L2C PREFETCH REQUESTED:          0 ISSUED:          0 USEFUL:          0 USELESS:          0
cpu0_L2C AVERAGE MISS LATENCY: 428.5 cycles
cpu0_STLB TOTAL        ACCESS:     802608 HIT:     790658 MISS:      11950
cpu0_STLB LOAD         ACCESS:     802608 HIT:     790658 MISS:      11950
cpu0_STLB RFO          ACCESS:          0 HIT:          0 MISS:          0
cpu0_STLB PREFETCH     ACCESS:          0 HIT:          0 MISS:          0
cpu0_STLB WRITE        ACCESS:          0 HIT:          0 MISS:          0
cpu0_STLB TRANSLATION  ACCESS:          0 HIT:          0 MISS:          0
cpu0_STLB PREFETCH REQUESTED:          0 ISSUED:          0 USEFUL:          0 USELESS:          0
cpu0_STLB AVERAGE MISS LATENCY: 190.7 cycles

DRAM Statistics

Channel 0 RQ ROW_BUFFER_HIT:     218118
  ROW_BUFFER_MISS:     577778
 AVG DBUS CONGESTED CYCLE: 3.971
WQ ROW_BUFFER_HIT: Channel 0 
  ROW_BUFFER_MISS:      63817
  FULL:     326565
[?2004h]0;anishk@wellsfargo-OptiPlex-5090: ~/Cham