Script started on 2023-10-11 12:37:44+05:30 [TERM="xterm-256color" TTY="/dev/pts/18" COLUMNS="173" LINES="23"]
[?2004h]0;anishk@wellsfargo-OptiPlex-5090: ~/ChampSim[01;32manishk@wellsfargo-OptiPlex-5090[00m:[01;34m~/ChampSim[00m$ bin/champsim --warmup_instructions 200000000 --simulation_instructions 500000000 ~/Downloads/602.gcc_s-2226B.champsimtrace.xz [1P5.mcf_s-472[C[C[C[C[C[C[C[C[C[C[C[C[C[C[C[C[C[C[C
[?2004lWARNING: physical memory size is smaller than virtual memory size.
WARNING: option --warmup_instructions is deprecated. Use --warmup-instructions instead.
WARNING: option --simulation_instructions is deprecated. Use --simulation-instructions instead.

*** ChampSim Multicore Out-of-Order Simulator ***
Warmup Instructions: 200000000
Simulation Instructions: 500000000
Number of CPUs: 1
Page size: 4096

Off-chip DRAM Size: 4 GiB Channels: 1 Width: 64-bit Data Race: 3200 MT/s
Heartbeat CPU 0 instructions: 10000003 cycles: 2991525 heartbeat IPC: 3.343 cumulative IPC: 3.343 (Simulation time: 00 hr 00 min 20 sec)
Heartbeat CPU 0 instructions: 20000002 cycles: 5823246 heartbeat IPC: 3.531 cumulative IPC: 3.435 (Simulation time: 00 hr 00 min 42 sec)
Heartbeat CPU 0 instructions: 30000003 cycles: 8581130 heartbeat IPC: 3.626 cumulative IPC: 3.496 (Simulation time: 00 hr 01 min 07 sec)
Heartbeat CPU 0 instructions: 40000002 cycles: 11571126 heartbeat IPC: 3.344 cumulative IPC: 3.457 (Simulation time: 00 hr 01 min 30 sec)
Heartbeat CPU 0 instructions: 50000002 cycles: 14505558 heartbeat IPC: 3.408 cumulative IPC: 3.447 (Simulation time: 00 hr 01 min 53 sec)
Heartbeat CPU 0 instructions: 60000004 cycles: 17431378 heartbeat IPC: 3.418 cumulative IPC: 3.442 (Simulation time: 00 hr 02 min 16 sec)
Heartbeat CPU 0 instructions: 70000001 cycles: 20384870 heartbeat IPC: 3.386 cumulative IPC: 3.434 (Simulation time: 00 hr 02 min 39 sec)
Heartbeat CPU 0 instructions: 80000000 cycles: 23214782 heartbeat IPC: 3.534 cumulative IPC: 3.446 (Simulation time: 00 hr 03 min 02 sec)
Heartbeat CPU 0 instructions: 90000001 cycles: 26173536 heartbeat IPC: 3.38 cumulative IPC: 3.439 (Simulation time: 00 hr 03 min 25 sec)
Heartbeat CPU 0 instructions: 100000000 cycles: 29045115 heartbeat IPC: 3.482 cumulative IPC: 3.443 (Simulation time: 00 hr 03 min 48 sec)
Heartbeat CPU 0 instructions: 110000004 cycles: 32045157 heartbeat IPC: 3.333 cumulative IPC: 3.433 (Simulation time: 00 hr 04 min 10 sec)
Heartbeat CPU 0 instructions: 120000004 cycles: 34969441 heartbeat IPC: 3.42 cumulative IPC: 3.432 (Simulation time: 00 hr 04 min 33 sec)
Heartbeat CPU 0 instructions: 130000000 cycles: 37888897 heartbeat IPC: 3.425 cumulative IPC: 3.431 (Simulation time: 00 hr 04 min 56 sec)
Heartbeat CPU 0 instructions: 140000001 cycles: 40768075 heartbeat IPC: 3.473 cumulative IPC: 3.434 (Simulation time: 00 hr 05 min 20 sec)
Heartbeat CPU 0 instructions: 150000000 cycles: 43646647 heartbeat IPC: 3.474 cumulative IPC: 3.437 (Simulation time: 00 hr 05 min 44 sec)
Heartbeat CPU 0 instructions: 160000003 cycles: 46591856 heartbeat IPC: 3.395 cumulative IPC: 3.434 (Simulation time: 00 hr 06 min 07 sec)
Heartbeat CPU 0 instructions: 170000001 cycles: 49561224 heartbeat IPC: 3.368 cumulative IPC: 3.43 (Simulation time: 00 hr 06 min 30 sec)
Heartbeat CPU 0 instructions: 180000004 cycles: 52525098 heartbeat IPC: 3.374 cumulative IPC: 3.427 (Simulation time: 00 hr 06 min 53 sec)
Heartbeat CPU 0 instructions: 190000002 cycles: 55336002 heartbeat IPC: 3.558 cumulative IPC: 3.434 (Simulation time: 00 hr 07 min 16 sec)
Heartbeat CPU 0 instructions: 200000000 cycles: 58255915 heartbeat IPC: 3.425 cumulative IPC: 3.433 (Simulation time: 00 hr 07 min 40 sec)
Warmup finished CPU 0 instructions: 200000000 cycles: 58255916 cumulative IPC: 3.433 (Simulation time: 00 hr 07 min 40 sec)
Warmup complete CPU 0 instructions: 200000000 cycles: 58255916 cumulative IPC: 3.433 (Simulation time: 00 hr 07 min 40 sec)
Heartbeat CPU 0 instructions: 210000004 cycles: 77674481 heartbeat IPC: 0.515 cumulative IPC: 0.515 (Simulation time: 00 hr 09 min 03 sec)
Heartbeat CPU 0 instructions: 220000004 cycles: 99771555 heartbeat IPC: 0.4525 cumulative IPC: 0.4817 (Simulation time: 00 hr 10 min 38 sec)
Heartbeat CPU 0 instructions: 230000001 cycles: 121358448 heartbeat IPC: 0.4632 cumulative IPC: 0.4754 (Simulation time: 00 hr 12 min 11 sec)
Heartbeat CPU 0 instructions: 240000001 cycles: 141843212 heartbeat IPC: 0.4882 cumulative IPC: 0.4785 (Simulation time: 00 hr 13 min 44 sec)
Heartbeat CPU 0 instructions: 250000000 cycles: 153607017 heartbeat IPC: 0.8501 cumulative IPC: 0.5244 (Simulation time: 00 hr 14 min 50 sec)
Heartbeat CPU 0 instructions: 260000000 cycles: 166436869 heartbeat IPC: 0.7794 cumulative IPC: 0.5546 (Simulation time: 00 hr 16 min 00 sec)
Heartbeat CPU 0 instructions: 270000000 cycles: 187706508 heartbeat IPC: 0.4702 cumulative IPC: 0.5407 (Simulation time: 00 hr 17 min 25 sec)
Heartbeat CPU 0 instructions: 280000000 cycles: 214537727 heartbeat IPC: 0.3727 cumulative IPC: 0.5119 (Simulation time: 00 hr 18 min 59 sec)
Heartbeat CPU 0 instructions: 290000001 cycles: 235205077 heartbeat IPC: 0.4839 cumulative IPC: 0.5086 (Simulation time: 00 hr 20 min 18 sec)
Heartbeat CPU 0 instructions: 300000001 cycles: 255898523 heartbeat IPC: 0.4832 cumulative IPC: 0.506 (Simulation time: 00 hr 21 min 47 sec)
Heartbeat CPU 0 instructions: 310000001 cycles: 280403906 heartbeat IPC: 0.4081 cumulative IPC: 0.4952 (Simulation time: 00 hr 23 min 30 sec)
Heartbeat CPU 0 instructions: 320000004 cycles: 308494772 heartbeat IPC: 0.356 cumulative IPC: 0.4795 (Simulation time: 00 hr 25 min 33 sec)
Heartbeat CPU 0 instructions: 330000002 cycles: 331000186 heartbeat IPC: 0.4443 cumulative IPC: 0.4766 (Simulation time: 00 hr 27 min 13 sec)
Heartbeat CPU 0 instructions: 340000000 cycles: 347554535 heartbeat IPC: 0.6041 cumulative IPC: 0.4839 (Simulation time: 00 hr 28 min 25 sec)
Heartbeat CPU 0 instructions: 350000004 cycles: 376394073 heartbeat IPC: 0.3467 cumulative IPC: 0.4715 (Simulation time: 00 hr 30 min 16 sec)
Heartbeat CPU 0 instructions: 360000000 cycles: 403932501 heartbeat IPC: 0.3631 cumulative IPC: 0.4629 (Simulation time: 00 hr 32 min 01 sec)
Heartbeat CPU 0 instructions: 370000000 cycles: 425767684 heartbeat IPC: 0.458 cumulative IPC: 0.4626 (Simulation time: 00 hr 33 min 25 sec)
Heartbeat CPU 0 instructions: 380000000 cycles: 446649146 heartbeat IPC: 0.4789 cumulative IPC: 0.4634 (Simulation time: 00 hr 34 min 47 sec)
Heartbeat CPU 0 instructions: 390000000 cycles: 469771700 heartbeat IPC: 0.4325 cumulative IPC: 0.4617 (Simulation time: 00 hr 36 min 19 sec)
Heartbeat CPU 0 instructions: 400000001 cycles: 494571759 heartbeat IPC: 0.4032 cumulative IPC: 0.4584 (Simulation time: 00 hr 37 min 54 sec)
Heartbeat CPU 0 instructions: 410000001 cycles: 512358987 heartbeat IPC: 0.5622 cumulative IPC: 0.4625 (Simulation time: 00 hr 39 min 05 sec)
Heartbeat CPU 0 instructions: 420000002 cycles: 530442377 heartbeat IPC: 0.553 cumulative IPC: 0.4659 (Simulation time: 00 hr 40 min 20 sec)
Heartbeat CPU 0 instructions: 430000001 cycles: 554621226 heartbeat IPC: 0.4136 cumulative IPC: 0.4634 (Simulation time: 00 hr 41 min 57 sec)
Heartbeat CPU 0 instructions: 440000002 cycles: 577812298 heartbeat IPC: 0.4312 cumulative IPC: 0.4619 (Simulation time: 00 hr 43 min 29 sec)
Heartbeat CPU 0 instructions: 450000000 cycles: 599048943 heartbeat IPC: 0.4709 cumulative IPC: 0.4623 (Simulation time: 00 hr 44 min 55 sec)
Heartbeat CPU 0 instructions: 460000000 cycles: 614232697 heartbeat IPC: 0.6586 cumulative IPC: 0.4676 (Simulation time: 00 hr 45 min 56 sec)
Heartbeat CPU 0 instructions: 470000002 cycles: 633511737 heartbeat IPC: 0.5187 cumulative IPC: 0.4694 (Simulation time: 00 hr 47 min 12 sec)
Heartbeat CPU 0 instructions: 480000001 cycles: 662297004 heartbeat IPC: 0.3474 cumulative IPC: 0.4635 (Simulation time: 00 hr 49 min 03 sec)
Heartbeat CPU 0 instructions: 490000000 cycles: 685455879 heartbeat IPC: 0.4318 cumulative IPC: 0.4624 (Simulation time: 00 hr 50 min 35 sec)
Heartbeat CPU 0 instructions: 500000000 cycles: 707399740 heartbeat IPC: 0.4557 cumulative IPC: 0.4621 (Simulation time: 00 hr 52 min 00 sec)
Heartbeat CPU 0 instructions: 510000000 cycles: 729762513 heartbeat IPC: 0.4472 cumulative IPC: 0.4616 (Simulation time: 00 hr 53 min 28 sec)
Heartbeat CPU 0 instructions: 520000000 cycles: 757277237 heartbeat IPC: 0.3634 cumulative IPC: 0.4578 (Simulation time: 00 hr 55 min 15 sec)
Heartbeat CPU 0 instructions: 530000001 cycles: 777199389 heartbeat IPC: 0.502 cumulative IPC: 0.459 (Simulation time: 00 hr 56 min 36 sec)
Heartbeat CPU 0 instructions: 540000003 cycles: 792415047 heartbeat IPC: 0.6572 cumulative IPC: 0.4631 (Simulation time: 00 hr 57 min 35 sec)
Heartbeat CPU 0 instructions: 550000004 cycles: 818374445 heartbeat IPC: 0.3852 cumulative IPC: 0.4605 (Simulation time: 00 hr 59 min 12 sec)
Heartbeat CPU 0 instructions: 560000004 cycles: 840053474 heartbeat IPC: 0.4613 cumulative IPC: 0.4605 (Simulation time: 01 hr 00 min 34 sec)
Heartbeat CPU 0 instructions: 570000003 cycles: 858667528 heartbeat IPC: 0.5372 cumulative IPC: 0.4623 (Simulation time: 01 hr 01 min 46 sec)
Heartbeat CPU 0 instructions: 580000001 cycles: 885733211 heartbeat IPC: 0.3695 cumulative IPC: 0.4592 (Simulation time: 01 hr 03 min 27 sec)
Heartbeat CPU 0 instructions: 590000001 cycles: 908123738 heartbeat IPC: 0.4466 cumulative IPC: 0.4589 (Simulation time: 01 hr 04 min 48 sec)
Heartbeat CPU 0 instructions: 600000001 cycles: 931060485 heartbeat IPC: 0.436 cumulative IPC: 0.4583 (Simulation time: 01 hr 06 min 11 sec)
Heartbeat CPU 0 instructions: 610000002 cycles: 951377514 heartbeat IPC: 0.4922 cumulative IPC: 0.4591 (Simulation time: 01 hr 07 min 24 sec)
Heartbeat CPU 0 instructions: 620000002 cycles: 974084242 heartbeat IPC: 0.4404 cumulative IPC: 0.4586 (Simulation time: 01 hr 08 min 47 sec)
Heartbeat CPU 0 instructions: 630000000 cycles: 995582580 heartbeat IPC: 0.4652 cumulative IPC: 0.4588 (Simulation time: 01 hr 10 min 05 sec)
Heartbeat CPU 0 instructions: 640000000 cycles: 1023290245 heartbeat IPC: 0.3609 cumulative IPC: 0.4559 (Simulation time: 01 hr 11 min 42 sec)
Heartbeat CPU 0 instructions: 650000001 cycles: 1041609443 heartbeat IPC: 0.5459 cumulative IPC: 0.4576 (Simulation time: 01 hr 12 min 49 sec)
Heartbeat CPU 0 instructions: 660000002 cycles: 1059628938 heartbeat IPC: 0.555 cumulative IPC: 0.4594 (Simulation time: 01 hr 13 min 55 sec)
Heartbeat CPU 0 instructions: 670000003 cycles: 1082533615 heartbeat IPC: 0.4366 cumulative IPC: 0.4589 (Simulation time: 01 hr 15 min 16 sec)
Heartbeat CPU 0 instructions: 680000000 cycles: 1099544916 heartbeat IPC: 0.5878 cumulative IPC: 0.461 (Simulation time: 01 hr 16 min 19 sec)
Heartbeat CPU 0 instructions: 690000002 cycles: 1123404574 heartbeat IPC: 0.4191 cumulative IPC: 0.46 (Simulation time: 01 hr 17 min 44 sec)
Heartbeat CPU 0 instructions: 700000000 cycles: 1146685294 heartbeat IPC: 0.4295 cumulative IPC: 0.4594 (Simulation time: 01 hr 19 min 07 sec)
Simulation finished CPU 0 instructions: 500000000 cycles: 1088429379 cumulative IPC: 0.4594 (Simulation time: 01 hr 19 min 07 sec)
Simulation complete CPU 0 instructions: 500000000 cycles: 1088429379 cumulative IPC: 0.4594 (Simulation time: 01 hr 19 min 07 sec)

ChampSim completed all CPUs

=== Simulation ===
CPU 0 runs /home/anishk/Downloads/605.mcf_s-472B.champsimtrace.xz
Region of Interest Statistics

CPU 0 cumulative IPC: 0.4594 instructions: 500000000 cycles: 1088429379
CPU 0 Branch Prediction Accuracy: 97.59% MPKI: 3.313 Average ROB Occupancy at Mispredict: 107.5
Branch type MPKI
BRANCH_DIRECT_JUMP: 0
BRANCH_INDIRECT: 0
BRANCH_CONDITIONAL: 3.31
BRANCH_DIRECT_CALL: 2e-06
BRANCH_INDIRECT_CALL: 0
BRANCH_RETURN: 2e-06

LLC TOTAL        ACCESS:   29664737 HIT:    2131189 MISS:   27533548
LLC LOAD         ACCESS:   26367323 HIT:      18076 MISS:   26349247
LLC RFO          ACCESS:    1145367 HIT:        365 MISS:    1145002
LLC PREFETCH     ACCESS:          0 HIT:          0 MISS:          0
LLC WRITE        ACCESS:    2114839 HIT:    2107657 MISS:       7182
LLC TRANSLATION  ACCESS:      37208 HIT:       5091 MISS:      32117
LLC PREFETCH REQUESTED:          0 ISSUED:          0 USEFUL:          0 USELESS:          0
LLC AVERAGE MISS LATENCY: 372.5 cycles
cpu0_DTLB TOTAL        ACCESS:  145905286 HIT:  139948186 MISS:    5957100
cpu0_DTLB LOAD         ACCESS:  145905286 HIT:  139948186 MISS:    5957100
cpu0_DTLB RFO          ACCESS:          0 HIT:          0 MISS:          0
cpu0_DTLB PREFETCH     ACCESS:          0 HIT:          0 MISS:          0
cpu0_DTLB WRITE        ACCESS:          0 HIT:          0 MISS:          0
cpu0_DTLB TRANSLATION  ACCESS:          0 HIT:          0 MISS:          0
cpu0_DTLB PREFETCH REQUESTED:          0 ISSUED:          0 USEFUL:          0 USELESS:          0
cpu0_DTLB AVERAGE MISS LATENCY: 9.689 cycles
cpu0_ITLB TOTAL        ACCESS:         18 HIT:         18 MISS:          0
cpu0_ITLB LOAD         ACCESS:         18 HIT:         18 MISS:          0
cpu0_ITLB RFO          ACCESS:          0 HIT:          0 MISS:          0
cpu0_ITLB PREFETCH     ACCESS:          0 HIT:          0 MISS:          0
cpu0_ITLB WRITE        ACCESS:          0 HIT:          0 MISS:          0
cpu0_ITLB TRANSLATION  ACCESS:          0 HIT:          0 MISS:          0
cpu0_ITLB PREFETCH REQUESTED:          0 ISSUED:          0 USEFUL:          0 USELESS:          0
cpu0_ITLB AVERAGE MISS LATENCY: -nan cycles
cpu0_L1D TOTAL        ACCESS:  209684426 HIT:  174344468 MISS:   35339958
cpu0_L1D LOAD         ACCESS:  104291708 HIT:   74331496 MISS:   29960212
cpu0_L1D RFO          ACCESS:          0 HIT:          0 MISS:          0
cpu0_L1D PREFETCH     ACCESS:          0 HIT:          0 MISS:          0
cpu0_L1D WRITE        ACCESS:  104719244 HIT:   99480364 MISS:    5238880
cpu0_L1D TRANSLATION  ACCESS:     673474 HIT:     532608 MISS:     140866
cpu0_L1D PREFETCH REQUESTED:          0 ISSUED:          0 USEFUL:          0 USELESS:          0
cpu0_L1D AVERAGE MISS LATENCY: 312.5 cycles
cpu0_L1I TOTAL        ACCESS:         20 HIT:          8 MISS:         12
cpu0_L1I LOAD         ACCESS:         20 HIT:          8 MISS:         12
cpu0_L1I RFO          ACCESS:          0 HIT:          0 MISS:          0
cpu0_L1I PREFETCH     ACCESS:          0 HIT:          0 MISS:          0
cpu0_L1I WRITE        ACCESS:          0 HIT:          0 MISS:          0
cpu0_L1I TRANSLATION  ACCESS:          0 HIT:          0 MISS:          0
cpu0_L1I PREFETCH REQUESTED:          0 ISSUED:          0 USEFUL:          0 USELESS:          0
cpu0_L1I AVERAGE MISS LATENCY: 169.5 cycles
cpu0_L2C TOTAL        ACCESS:   30446282 HIT:    2885888 MISS:   27560394
cpu0_L2C LOAD         ACCESS:   26667559 HIT:     300233 MISS:   26367326
cpu0_L2C RFO          ACCESS:    1230526 HIT:      85159 MISS:    1145367
cpu0_L2C PREFETCH     ACCESS:          0 HIT:          0 MISS:          0
cpu0_L2C WRITE        ACCESS:    2407563 HIT:    2397070 MISS:      10493
cpu0_L2C TRANSLATION  ACCESS:     140634 HIT:     103426 MISS:      37208
cpu0_L2C PREFETCH REQUESTED:          0 ISSUED:          0 USEFUL:          0 USELESS:          0
cpu0_L2C AVERAGE MISS LATENCY: 393.1 cycles
cpu0_STLB TOTAL        ACCESS:    1807526 HIT:    1135059 MISS:     672467
cpu0_STLB LOAD         ACCESS:    1807526 HIT:    1135059 MISS:     672467
cpu0_STLB RFO          ACCESS:          0 HIT:          0 MISS:          0
cpu0_STLB PREFETCH     ACCESS:          0 HIT:          0 MISS:          0
cpu0_STLB WRITE        ACCESS:          0 HIT:          0 MISS:          0
cpu0_STLB TRANSLATION  ACCESS:          0 HIT:          0 MISS:          0
cpu0_STLB PREFETCH REQUESTED:          0 ISSUED:          0 USEFUL:          0 USELESS:          0
cpu0_STLB AVERAGE MISS LATENCY: 180.1 cycles

DRAM Statistics

Channel 0 RQ ROW_BUFFER_HIT:   19009706
  ROW_BUFFER_MISS:    8515801
 AVG DBUS CONGESTED CYCLE: 3.958
WQ ROW_BUFFER_HIT: Channel 0 
  ROW_BUFFER_MISS:     268779
  FULL:    1831879
[?2004h]0;anishk@wellsfargo-OptiPlex-5090: ~/ChampSim[01;32manishk@wellsfargo-OptiPlex-5090[00m:[01;34m~/ChampSim[00m$ [K]0;anishk@we