Script started on 2023-10-10 17:11:10+05:30 [TERM="xterm-256color" TTY="/dev/pts/3" COLUMNS="173" LINES="12"]
[?2004h]0;anishk@wellsfargo-OptiPlex-5090: ~/ChampSim[01;32manishk@wellsfargo-OptiPlex-5090[00m:[01;34m~/ChampSim[00m$ make./config.sh champsim_config.jsonmake[K./config.sh champsim_config.jsonmake[K[K[K[K[K[7mbin/champsim --warmup_instructions 200000000 --simulation_instructions 500000000 ~/path/to/traces/600.perlbench_s-210B.champsimtr[27m[7ma[27m[7mce.xz[27m[A
]0;anishk@wellsfargo-OptiPlex-5090: ~/ChampSim[01;32manishk@wellsfargo-OptiPlex-5090[00m:[01;34m~/ChampSim[00m$ bin/champsim --warmup_instructions 200000000 --simulation_instructions 500000000 ~/path/to/traces/600.perlbench_s-210B.champsimtra[1Pce.x[K[K[K[K
[K[A[C[C[C[C[C[C[C[C[C[C[C[C[C[C[C[C[C[C[C[C[C[C[C[C[C[C[C[C[C[C[C[C[C[C[C[C[C[C[C[C[C[C[C[C[C[C[C[C[C[C[C[C[C[C[C[C[C[C[C[C[C[C[C[C[C[C[C[C[C[C[C[C[C[C[C[C[C[C[C[C[C[C[C[C[C[C[C[C[C[C[C[C[C[C[C[C[C[C[C[C[C[C[C[C[C[C[C[C[C[C[C[C[C[C[C[C[C[C[C[C[C[C[C[C[C[C[C[C[C[C[C[C[C[C[C[C[C[C[C[C[C[C[C[C[C[C[C[C[C[C[C[C[C[C[C[C[C[C[C[C[C[C[C[C[C[C[C[C[C[C[C[C[K

[K[A[C[C[C[C[C[C[C[C[C[C[C[C[C[C[C[C[C[C[C[C[C[C[C[C[C[C[C[C[C[C[C[C[C[C[C[C[C[C[C[C[C[C[C[C[C[C[C[C[C[C[C[C[C[C[C[C[C[C[C[C[C[C[C[C[C[C[C[C[C[C[C[C[C[C[C[C[C[C[C[C[C[C[C[C[C[C[C[C[C[C[C[C[C[C[C[C[C[C[C[C[C[C[C[C[C[C[C[C[C[C[C[C[C[C[C[C[C[C[C[C[C[C[C[C[C[C[C[C[C[C[C[C[C[C[C[C[C[C[C[C[C[C[C[C[C[C[C[C[C[C[C[C[C[C[C[C[C[C[C[C[C[C[C[C[C[C[C[C[C[C[C[C[K[K[K[K[K[K[K[K[K[K[K[K[K[K[K[K[K[K[K[K[K[K[K[K[K[K[K[K[K[K[K[K[K[K[K[K[K[K[K[K[K[K[K[K[KDownloads/605.mcf_s-472B.champsimtrace.xz 
[?2004l
WARNING: physical memory size is smaller than virtual memory size.
WARNING: option --warmup_instructions is deprecated. Use --warmup-instructions instead.
WARNING: option --simulation_instructions is deprecated. Use --simulation-instructions instead.

*** ChampSim Multicore Out-of-Order Simulator ***
Warmup Instructions: 200000000
Simulation Instructions: 500000000
Number of CPUs: 1
Page size: 4096

Off-chip DRAM Size: 4 GiB Channels: 1 Width: 64-bit Data Race: 3200 MT/s
Heartbeat CPU 0 instructions: 10000003 cycles: 2991560 heartbeat IPC: 3.343 cumulative IPC: 3.343 (Simulation time: 00 hr 00 min 19 sec)
Heartbeat CPU 0 instructions: 20000002 cycles: 5823221 heartbeat IPC: 3.531 cumulative IPC: 3.435 (Simulation time: 00 hr 00 min 42 sec)
Heartbeat CPU 0 instructions: 30000003 cycles: 8581200 heartbeat IPC: 3.626 cumulative IPC: 3.496 (Simulation time: 00 hr 01 min 02 sec)
Heartbeat CPU 0 instructions: 40000002 cycles: 11571292 heartbeat IPC: 3.344 cumulative IPC: 3.457 (Simulation time: 00 hr 01 min 22 sec)
Heartbeat CPU 0 instructions: 50000001 cycles: 14505670 heartbeat IPC: 3.408 cumulative IPC: 3.447 (Simulation time: 00 hr 01 min 44 sec)
Heartbeat CPU 0 instructions: 60000004 cycles: 17431478 heartbeat IPC: 3.418 cumulative IPC: 3.442 (Simulation time: 00 hr 02 min 04 sec)
Heartbeat CPU 0 instructions: 70000001 cycles: 20384910 heartbeat IPC: 3.386 cumulative IPC: 3.434 (Simulation time: 00 hr 02 min 25 sec)
Heartbeat CPU 0 instructions: 80000000 cycles: 23214707 heartbeat IPC: 3.534 cumulative IPC: 3.446 (Simulation time: 00 hr 02 min 46 sec)
Heartbeat CPU 0 instructions: 90000003 cycles: 26173491 heartbeat IPC: 3.38 cumulative IPC: 3.439 (Simulation time: 00 hr 03 min 07 sec)
Heartbeat CPU 0 instructions: 100000000 cycles: 29045085 heartbeat IPC: 3.482 cumulative IPC: 3.443 (Simulation time: 00 hr 03 min 28 sec)
Heartbeat CPU 0 instructions: 110000004 cycles: 32045182 heartbeat IPC: 3.333 cumulative IPC: 3.433 (Simulation time: 00 hr 03 min 49 sec)
Heartbeat CPU 0 instructions: 120000004 cycles: 34969491 heartbeat IPC: 3.42 cumulative IPC: 3.432 (Simulation time: 00 hr 04 min 11 sec)
Heartbeat CPU 0 instructions: 130000000 cycles: 37888942 heartbeat IPC: 3.425 cumulative IPC: 3.431 (Simulation time: 00 hr 04 min 32 sec)
Heartbeat CPU 0 instructions: 140000001 cycles: 40767980 heartbeat IPC: 3.473 cumulative IPC: 3.434 (Simulation time: 00 hr 04 min 52 sec)
Heartbeat CPU 0 instructions: 150000000 cycles: 43646519 heartbeat IPC: 3.474 cumulative IPC: 3.437 (Simulation time: 00 hr 05 min 13 sec)
Heartbeat CPU 0 instructions: 160000003 cycles: 46591785 heartbeat IPC: 3.395 cumulative IPC: 3.434 (Simulation time: 00 hr 05 min 34 sec)
Heartbeat CPU 0 instructions: 170000001 cycles: 49561129 heartbeat IPC: 3.368 cumulative IPC: 3.43 (Simulation time: 00 hr 05 min 55 sec)
Heartbeat CPU 0 instructions: 180000004 cycles: 52525113 heartbeat IPC: 3.374 cumulative IPC: 3.427 (Simulation time: 00 hr 06 min 16 sec)
Heartbeat CPU 0 instructions: 190000000 cycles: 55336096 heartbeat IPC: 3.557 cumulative IPC: 3.434 (Simulation time: 00 hr 06 min 37 sec)
Heartbeat CPU 0 instructions: 200000000 cycles: 58256018 heartbeat IPC: 3.425 cumulative IPC: 3.433 (Simulation time: 00 hr 06 min 57 sec)
Warmup finished CPU 0 instructions: 200000000 cycles: 58256019 cumulative IPC: 3.433 (Simulation time: 00 hr 06 min 57 sec)
Warmup complete CPU 0 instructions: 200000000 cycles: 58256019 cumulative IPC: 3.433 (Simulation time: 00 hr 06 min 57 sec)
Heartbeat CPU 0 instructions: 210000004 cycles: 77224099 heartbeat IPC: 0.5272 cumulative IPC: 0.5272 (Simulation time: 00 hr 08 min 12 sec)
Heartbeat CPU 0 instructions: 220000004 cycles: 98837819 heartbeat IPC: 0.4627 cumulative IPC: 0.4928 (Simulation time: 00 hr 09 min 38 sec)
Heartbeat CPU 0 instructions: 230000001 cycles: 119945043 heartbeat IPC: 0.4738 cumulative IPC: 0.4863 (Simulation time: 00 hr 11 min 04 sec)
Heartbeat CPU 0 instructions: 240000001 cycles: 140107857 heartbeat IPC: 0.496 cumulative IPC: 0.4887 (Simulation time: 00 hr 12 min 26 sec)
Heartbeat CPU 0 instructions: 250000000 cycles: 151742612 heartbeat IPC: 0.8595 cumulative IPC: 0.5348 (Simulation time: 00 hr 13 min 25 sec)
Heartbeat CPU 0 instructions: 260000000 cycles: 164074108 heartbeat IPC: 0.8109 cumulative IPC: 0.567 (Simulation time: 00 hr 14 min 25 sec)
Heartbeat CPU 0 instructions: 270000000 cycles: 182881131 heartbeat IPC: 0.5317 cumulative IPC: 0.5617 (Simulation time: 00 hr 15 min 34 sec)
Heartbeat CPU 0 instructions: 280000000 cycles: 205701282 heartbeat IPC: 0.4382 cumulative IPC: 0.5426 (Simulation time: 00 hr 16 min 49 sec)
Heartbeat CPU 0 instructions: 290000001 cycles: 223886997 heartbeat IPC: 0.5499 cumulative IPC: 0.5434 (Simulation time: 00 hr 17 min 55 sec)
Heartbeat CPU 0 instructions: 300000001 cycles: 244142209 heartbeat IPC: 0.4937 cumulative IPC: 0.538 (Simulation time: 00 hr 19 min 15 sec)
Heartbeat CPU 0 instructions: 310000001 cycles: 268084477 heartbeat IPC: 0.4177 cumulative IPC: 0.5242 (Simulation time: 00 hr 20 min 49 sec)
Heartbeat CPU 0 instructions: 320000001 cycles: 295585005 heartbeat IPC: 0.3636 cumulative IPC: 0.5056 (Simulation time: 00 hr 22 min 33 sec)
Heartbeat CPU 0 instructions: 330000002 cycles: 317514092 heartbeat IPC: 0.456 cumulative IPC: 0.5014 (Simulation time: 00 hr 23 min 58 sec)
Heartbeat CPU 0 instructions: 340000003 cycles: 333730740 heartbeat IPC: 0.6167 cumulative IPC: 0.5082 (Simulation time: 00 hr 25 min 04 sec)
Heartbeat CPU 0 instructions: 350000004 cycles: 361985358 heartbeat IPC: 0.3539 cumulative IPC: 0.4939 (Simulation time: 00 hr 26 min 48 sec)
Heartbeat CPU 0 instructions: 360000000 cycles: 388946570 heartbeat IPC: 0.3709 cumulative IPC: 0.4838 (Simulation time: 00 hr 28 min 24 sec)
Heartbeat CPU 0 instructions: 370000000 cycles: 410274106 heartbeat IPC: 0.4689 cumulative IPC: 0.4829 (Simulation time: 00 hr 29 min 42 sec)
Heartbeat CPU 0 instructions: 380000000 cycles: 430707137 heartbeat IPC: 0.4894 cumulative IPC: 0.4833 (Simulation time: 00 hr 30 min 58 sec)
Heartbeat CPU 0 instructions: 390000000 cycles: 453362032 heartbeat IPC: 0.4414 cumulative IPC: 0.4809 (Simulation time: 00 hr 32 min 21 sec)
Heartbeat CPU 0 instructions: 400000002 cycles: 477597305 heartbeat IPC: 0.4126 cumulative IPC: 0.4769 (Simulation time: 00 hr 33 min 48 sec)
Heartbeat CPU 0 instructions: 410000001 cycles: 494916847 heartbeat IPC: 0.5774 cumulative IPC: 0.4809 (Simulation time: 00 hr 34 min 54 sec)
Heartbeat CPU 0 instructions: 420000002 cycles: 512519307 heartbeat IPC: 0.5681 cumulative IPC: 0.4843 (Simulation time: 00 hr 36 min 00 sec)
Heartbeat CPU 0 instructions: 430000001 cycles: 536094904 heartbeat IPC: 0.4242 cumulative IPC: 0.4813 (Simulation time: 00 hr 37 min 26 sec)
Heartbeat CPU 0 instructions: 440000002 cycles: 558748123 heartbeat IPC: 0.4414 cumulative IPC: 0.4795 (Simulation time: 00 hr 38 min 48 sec)
Heartbeat CPU 0 instructions: 450000000 cycles: 579451802 heartbeat IPC: 0.483 cumulative IPC: 0.4797 (Simulation time: 00 hr 40 min 04 sec)
Heartbeat CPU 0 instructions: 460000000 cycles: 594198557 heartbeat IPC: 0.6781 cumulative IPC: 0.4851 (Simulation time: 00 hr 41 min 01 sec)
Heartbeat CPU 0 instructions: 470000002 cycles: 612954141 heartbeat IPC: 0.5332 cumulative IPC: 0.4868 (Simulation time: 00 hr 42 min 10 sec)
Heartbeat CPU 0 instructions: 480000002 cycles: 641070521 heartbeat IPC: 0.3557 cumulative IPC: 0.4804 (Simulation time: 00 hr 43 min 50 sec)
Heartbeat CPU 0 instructions: 490000000 cycles: 663660519 heartbeat IPC: 0.4427 cumulative IPC: 0.479 (Simulation time: 00 hr 45 min 12 sec)
Heartbeat CPU 0 instructions: 500000000 cycles: 685090120 heartbeat IPC: 0.4666 cumulative IPC: 0.4786 (Simulation time: 00 hr 46 min 30 sec)
Heartbeat CPU 0 instructions: 510000002 cycles: 706897890 heartbeat IPC: 0.4586 cumulative IPC: 0.4779 (Simulation time: 00 hr 47 min 49 sec)
Heartbeat CPU 0 instructions: 520000000 cycles: 733799476 heartbeat IPC: 0.3717 cumulative IPC: 0.4737 (Simulation time: 00 hr 49 min 24 sec)
Heartbeat CPU 0 instructions: 530000001 cycles: 753258769 heartbeat IPC: 0.5139 cumulative IPC: 0.4748 (Simulation time: 00 hr 50 min 36 sec)
Heartbeat CPU 0 instructions: 540000003 cycles: 768071071 heartbeat IPC: 0.6751 cumulative IPC: 0.479 (Simulation time: 00 hr 51 min 33 sec)
Heartbeat CPU 0 instructions: 550000000 cycles: 793546376 heartbeat IPC: 0.3925 cumulative IPC: 0.476 (Simulation time: 00 hr 53 min 03 sec)
Heartbeat CPU 0 instructions: 560000004 cycles: 814684878 heartbeat IPC: 0.4731 cumulative IPC: 0.4759 (Simulation time: 00 hr 54 min 20 sec)
Heartbeat CPU 0 instructions: 570000003 cycles: 832798164 heartbeat IPC: 0.5521 cumulative IPC: 0.4777 (Simulation time: 00 hr 55 min 27 sec)
Heartbeat CPU 0 instructions: 580000001 cycles: 859279301 heartbeat IPC: 0.3776 cumulative IPC: 0.4744 (Simulation time: 00 hr 57 min 02 sec)
Heartbeat CPU 0 instructions: 590000001 cycles: 881187266 heartbeat IPC: 0.4565 cumulative IPC: 0.4739 (Simulation time: 00 hr 58 min 21 sec)
Heartbeat CPU 0 instructions: 600000002 cycles: 903569627 heartbeat IPC: 0.4468 cumulative IPC: 0.4732 (Simulation time: 00 hr 59 min 42 sec)
Heartbeat CPU 0 instructions: 610000003 cycles: 923335832 heartbeat IPC: 0.5059 cumulative IPC: 0.4739 (Simulation time: 01 hr 00 min 54 sec)
Heartbeat CPU 0 instructions: 620000002 cycles: 945531104 heartbeat IPC: 0.4505 cumulative IPC: 0.4734 (Simulation time: 01 hr 02 min 15 sec)
Heartbeat CPU 0 instructions: 630000000 cycles: 966518044 heartbeat IPC: 0.4765 cumulative IPC: 0.4734 (Simulation time: 01 hr 03 min 31 sec)
Heartbeat CPU 0 instructions: 640000000 cycles: 993651895 heartbeat IPC: 0.3685 cumulative IPC: 0.4704 (Simulation time: 01 hr 05 min 07 sec)
Heartbeat CPU 0 instructions: 650000001 cycles: 1011481952 heartbeat IPC: 0.5609 cumulative IPC: 0.4721 (Simulation time: 01 hr 06 min 13 sec)
Heartbeat CPU 0 instructions: 660000002 cycles: 1029000735 heartbeat IPC: 0.5708 cumulative IPC: 0.4739 (Simulation time: 01 hr 07 min 18 sec)
Heartbeat CPU 0 instructions: 670000004 cycles: 1051424882 heartbeat IPC: 0.4459 cumulative IPC: 0.4732 (Simulation time: 01 hr 08 min 38 sec)
Heartbeat CPU 0 instructions: 680000000 cycles: 1067882053 heartbeat IPC: 0.6076 cumulative IPC: 0.4754 (Simulation time: 01 hr 09 min 40 sec)
Heartbeat CPU 0 instructions: 690000002 cycles: 1091173472 heartbeat IPC: 0.4293 cumulative IPC: 0.4744 (Simulation time: 01 hr 11 min 04 sec)
Heartbeat CPU 0 instructions: 700000000 cycles: 1113951634 heartbeat IPC: 0.439 cumulative IPC: 0.4736 (Simulation time: 01 hr 12 min 26 sec)
Simulation finished CPU 0 instructions: 500000000 cycles: 1055695616 cumulative IPC: 0.4736 (Simulation time: 01 hr 12 min 26 sec)
Simulation complete CPU 0 instructions: 500000000 cycles: 1055695616 cumulative IPC: 0.4736 (Simulation time: 01 hr 12 min 26 sec)

ChampSim completed all CPUs

=== Simulation ===
CPU 0 runs /home/anishk/Downloads/605.mcf_s-472B.champsimtrace.xz
Region of Interest Statistics

CPU 0 cumulative IPC: 0.4736 instructions: 500000000 cycles: 1055695616
CPU 0 Branch Prediction Accuracy: 98.45% MPKI: 2.123 Average ROB Occupancy at Mispredict: 108.9
Branch type MPKI
BRANCH_DIRECT_JUMP: 0
BRANCH_INDIRECT: 0
BRANCH_CONDITIONAL: 2.12
BRANCH_DIRECT_CALL: 2e-06
BRANCH_INDIRECT_CALL: 0
BRANCH_RETURN: 2e-06

LLC TOTAL        ACCESS:   29664487 HIT:    2131228 MISS:   27533259
LLC LOAD         ACCESS:   26367236 HIT:      17955 MISS:   26349281
LLC RFO          ACCESS:    1145489 HIT:        488 MISS:    1145001
LLC PREFETCH     ACCESS:          0 HIT:          0 MISS:          0
LLC WRITE        ACCESS:    2114810 HIT:    2107750 MISS:       7060
LLC TRANSLATION  ACCESS:      36952 HIT:       5035 MISS:      31917
LLC PREFETCH REQUESTED:          0 ISSUED:          0 USEFUL:          0 USELESS:          0
LLC AVERAGE MISS LATENCY: 380.3 cycles
cpu0_DTLB TOTAL        ACCESS:  140518700 HIT:  134576093 MISS:    5942607
cpu0_DTLB LOAD         ACCESS:  140518700 HIT:  134576093 MISS:    5942607
cpu0_DTLB RFO          ACCESS:          0 HIT:          0 MISS:          0
cpu0_DTLB PREFETCH     ACCESS:          0 HIT:          0 MISS:          0
cpu0_DTLB WRITE        ACCESS:          0 HIT:          0 MISS:          0
cpu0_DTLB TRANSLATION  ACCESS:          0 HIT:          0 MISS:          0
cpu0_DTLB PREFETCH REQUESTED:          0 ISSUED:          0 USEFUL:          0 USELESS:          0
cpu0_DTLB AVERAGE MISS LATENCY: 9.919 cycles
cpu0_ITLB TOTAL        ACCESS:         18 HIT:         18 MISS:          0
cpu0_ITLB LOAD         ACCESS:         18 HIT:         18 MISS:          0
cpu0_ITLB RFO          ACCESS:          0 HIT:          0 MISS:          0
cpu0_ITLB PREFETCH     ACCESS:          0 HIT:          0 MISS:          0
cpu0_ITLB WRITE        ACCESS:          0 HIT:          0 MISS:          0
cpu0_ITLB TRANSLATION  ACCESS:          0 HIT:          0 MISS:          0
cpu0_ITLB PREFETCH REQUESTED:          0 ISSUED:          0 USEFUL:          0 USELESS:          0
cpu0_ITLB AVERAGE MISS LATENCY: -nan cycles
cpu0_L1D TOTAL        ACCESS:  203710865 HIT:  168892486 MISS:   34818379
cpu0_L1D LOAD         ACCESS:   95232216 HIT:   65778052 MISS:   29454164
cpu0_L1D RFO          ACCESS:          0 HIT:          0 MISS:          0
cpu0_L1D PREFETCH     ACCESS:          0 HIT:          0 MISS:          0
cpu0_L1D WRITE        ACCESS:  107805167 HIT:  102581641 MISS:    5223526
cpu0_L1D TRANSLATION  ACCESS:     673482 HIT:     532793 MISS:     140689
cpu0_L1D PREFETCH REQUESTED:          0 ISSUED:          0 USEFUL:          0 USELESS:          0
cpu0_L1D AVERAGE MISS LATENCY: 323.2 cycles
cpu0_L1I TOTAL        ACCESS:         20 HIT:          8 MISS:         12
cpu0_L1I LOAD         ACCESS:         20 HIT:          8 MISS:         12
cpu0_L1I RFO          ACCESS:          0 HIT:          0 MISS:          0
cpu0_L1I PREFETCH     ACCESS:          0 HIT:          0 MISS:          0
cpu0_L1I WRITE        ACCESS:          0 HIT:          0 MISS:          0
cpu0_L1I TRANSLATION  ACCESS:          0 HIT:          0 MISS:          0
cpu0_L1I PREFETCH REQUESTED


const uint8_t TAGE_INDEX_BITS[TAGE_NUM_COMPONENTS] = {14,15,13,12};
const uint8_t TAGE_TAG_BITS[TAGE_NUM_COMPONENTS] = {12,13,14,15};