Script started on 2023-10-10 17:12:27+05:30 [TERM="xterm-256color" TTY="/dev/pts/5" COLUMNS="173" LINES="12"]
[?2004h]0;anishk@wellsfargo-OptiPlex-5090: ~/ChampSim[01;32manishk@wellsfargo-OptiPlex-5090[00m:[01;34m~/ChampSim[00m$ make./config.sh champsim_config.jsonmake[K[K[K[K[K[7mbin/champsim --warmup_instructions 200000000 --simulation_instructions 500000000 ~/path/to/traces/600.perlbench_s-210B.champsimtr[27m[7ma[27m[7mce.xz[27m[A
]0;anishk@wellsfargo-OptiPlex-5090: ~/ChampSim[01;32manishk@wellsfargo-OptiPlex-5090[00m:[01;34m~/ChampSim[00m$ bin/champsim --warmup_instructions 200000000 --simulation_instructions 500000000 ~/path/to/traces/600.perlbench_s-210B.champsimtra[1Pce.x[K[K[K[K
[K[A[C[C[C[C[C[C[C[C[C[C[C[C[C[C[C[C[C[C[C[C[C[C[C[C[C[C[C[C[C[C[C[C[C[C[C[C[C[C[C[C[C[C[C[C[C[C[C[C[C[C[C[C[C[C[C[C[C[C[C[C[C[C[C[C[C[C[C[C[C[C[C[C[C[C[C[C[C[C[C[C[C[C[C[C[C[C[C[C[C[C[C[C[C[C[C[C[C[C[C[C[C[C[C[C[C[C[C[C[C[C[C[C[C[C[C[C[C[C[C[C[C[C[C[C[C[C[C[C[C[C[C[C[C[C[C[C[C[C[C[C[C[C[C[C[C[C[C[C[C[C[C[C[C[C[C[C[C[C[C[C[C[C[C[C[C[C[C[C[C[C[C[C[K

[K[A[C[C[C[C[C[C[C[C[C[C[C[C[C[C[C[C[C[C[C[C[C[C[C[C[C[C[C[C[C[C[C[C[C[C[C[C[C[C[C[C[C[C[C[C[C[C[C[C[C[C[C[C[C[C[C[C[C[C[C[C[C[C[C[C[C[C[C[C[C[C[C[C[C[C[C[C[C[C[C[C[C[C[C[C[C[C[C[C[C[C[C[C[C[C[C[C[C[C[C[C[C[C[C[C[C[C[C[C[C[C[C[C[C[C[C[C[C[C[C[C[C[C[C[C[C[C[C[C[C[C[C[C[C[C[C[C[C[C[C[C[C[C[C[C[C[C[C[C[C[C[C[C[C[C[C[C[C[C[C[C[C[C[C[C[C[C[C[C[C[C[C[C[K[K[K[K[K[K[K[K[K[K[K[K[K[K[K[K[K[K[K[K[K[K[K[K[K[K[K[K[K[K[K[K[K[K[K[K[K[K[K[K[K[K[K[K[KDownloads/625.x264_s-18B.champsimtrace.xz 
[?2004l
WARNING: physical memory size is smaller than virtual memory size.
WARNING: option --warmup_instructions is deprecated. Use --warmup-instructions instead.
WARNING: option --simulation_instructions is deprecated. Use --simulation-instructions instead.

*** ChampSim Multicore Out-of-Order Simulator ***
Warmup Instructions: 200000000
Simulation Instructions: 500000000
Number of CPUs: 1
Page size: 4096

Off-chip DRAM Size: 4 GiB Channels: 1 Width: 64-bit Data Race: 3200 MT/s
Heartbeat CPU 0 instructions: 10000003 cycles: 2500043 heartbeat IPC: 4 cumulative IPC: 4 (Simulation time: 00 hr 00 min 17 sec)
Heartbeat CPU 0 instructions: 20000003 cycles: 5000043 heartbeat IPC: 4 cumulative IPC: 4 (Simulation time: 00 hr 00 min 35 sec)
Heartbeat CPU 0 instructions: 30000002 cycles: 7500235 heartbeat IPC: 4 cumulative IPC: 4 (Simulation time: 00 hr 00 min 52 sec)
Heartbeat CPU 0 instructions: 40000002 cycles: 10000235 heartbeat IPC: 4 cumulative IPC: 4 (Simulation time: 00 hr 01 min 09 sec)
Heartbeat CPU 0 instructions: 50000002 cycles: 12500235 heartbeat IPC: 4 cumulative IPC: 4 (Simulation time: 00 hr 01 min 26 sec)
Heartbeat CPU 0 instructions: 60000002 cycles: 15000235 heartbeat IPC: 4 cumulative IPC: 4 (Simulation time: 00 hr 01 min 43 sec)
Heartbeat CPU 0 instructions: 70000002 cycles: 17500235 heartbeat IPC: 4 cumulative IPC: 4 (Simulation time: 00 hr 02 min 00 sec)
Heartbeat CPU 0 instructions: 80000002 cycles: 20000235 heartbeat IPC: 4 cumulative IPC: 4 (Simulation time: 00 hr 02 min 18 sec)
Heartbeat CPU 0 instructions: 90000002 cycles: 22500235 heartbeat IPC: 4 cumulative IPC: 4 (Simulation time: 00 hr 02 min 35 sec)
Heartbeat CPU 0 instructions: 100000002 cycles: 25000235 heartbeat IPC: 4 cumulative IPC: 4 (Simulation time: 00 hr 02 min 53 sec)
Heartbeat CPU 0 instructions: 110000002 cycles: 27500235 heartbeat IPC: 4 cumulative IPC: 4 (Simulation time: 00 hr 03 min 10 sec)
Heartbeat CPU 0 instructions: 120000002 cycles: 30000235 heartbeat IPC: 4 cumulative IPC: 4 (Simulation time: 00 hr 03 min 27 sec)
Heartbeat CPU 0 instructions: 130000002 cycles: 32500235 heartbeat IPC: 4 cumulative IPC: 4 (Simulation time: 00 hr 03 min 44 sec)
Heartbeat CPU 0 instructions: 140000003 cycles: 35003666 heartbeat IPC: 3.995 cumulative IPC: 4 (Simulation time: 00 hr 04 min 01 sec)
Heartbeat CPU 0 instructions: 150000001 cycles: 37517413 heartbeat IPC: 3.978 cumulative IPC: 3.998 (Simulation time: 00 hr 04 min 18 sec)
Heartbeat CPU 0 instructions: 160000000 cycles: 40017799 heartbeat IPC: 3.999 cumulative IPC: 3.998 (Simulation time: 00 hr 04 min 35 sec)
Heartbeat CPU 0 instructions: 170000000 cycles: 42518301 heartbeat IPC: 3.999 cumulative IPC: 3.998 (Simulation time: 00 hr 04 min 52 sec)
Heartbeat CPU 0 instructions: 180000000 cycles: 45018892 heartbeat IPC: 3.999 cumulative IPC: 3.998 (Simulation time: 00 hr 05 min 09 sec)
Heartbeat CPU 0 instructions: 190000002 cycles: 47519495 heartbeat IPC: 3.999 cumulative IPC: 3.998 (Simulation time: 00 hr 05 min 26 sec)
Heartbeat CPU 0 instructions: 200000000 cycles: 50019864 heartbeat IPC: 3.999 cumulative IPC: 3.998 (Simulation time: 00 hr 05 min 43 sec)
Warmup finished CPU 0 instructions: 200000000 cycles: 50019865 cumulative IPC: 3.998 (Simulation time: 00 hr 05 min 43 sec)
Warmup complete CPU 0 instructions: 200000000 cycles: 50019865 cumulative IPC: 3.998 (Simulation time: 00 hr 05 min 43 sec)
Heartbeat CPU 0 instructions: 210000000 cycles: 52999416 heartbeat IPC: 3.356 cumulative IPC: 3.356 (Simulation time: 00 hr 06 min 03 sec)
Heartbeat CPU 0 instructions: 220000001 cycles: 56018677 heartbeat IPC: 3.312 cumulative IPC: 3.334 (Simulation time: 00 hr 06 min 24 sec)
Heartbeat CPU 0 instructions: 230000000 cycles: 59037729 heartbeat IPC: 3.312 cumulative IPC: 3.327 (Simulation time: 00 hr 06 min 45 sec)
Heartbeat CPU 0 instructions: 240000003 cycles: 62042875 heartbeat IPC: 3.328 cumulative IPC: 3.327 (Simulation time: 00 hr 07 min 06 sec)
Heartbeat CPU 0 instructions: 250000000 cycles: 65079984 heartbeat IPC: 3.293 cumulative IPC: 3.32 (Simulation time: 00 hr 07 min 27 sec)
Heartbeat CPU 0 instructions: 260000000 cycles: 68081556 heartbeat IPC: 3.332 cumulative IPC: 3.322 (Simulation time: 00 hr 07 min 48 sec)
Heartbeat CPU 0 instructions: 270000004 cycles: 71077767 heartbeat IPC: 3.338 cumulative IPC: 3.324 (Simulation time: 00 hr 08 min 09 sec)
Heartbeat CPU 0 instructions: 280000000 cycles: 74112090 heartbeat IPC: 3.296 cumulative IPC: 3.321 (Simulation time: 00 hr 08 min 29 sec)
Heartbeat CPU 0 instructions: 290000004 cycles: 77111070 heartbeat IPC: 3.334 cumulative IPC: 3.322 (Simulation time: 00 hr 08 min 50 sec)
Heartbeat CPU 0 instructions: 300000000 cycles: 80094328 heartbeat IPC: 3.352 cumulative IPC: 3.325 (Simulation time: 00 hr 09 min 12 sec)
Heartbeat CPU 0 instructions: 310000000 cycles: 83129779 heartbeat IPC: 3.294 cumulative IPC: 3.322 (Simulation time: 00 hr 09 min 34 sec)
Heartbeat CPU 0 instructions: 320000000 cycles: 86111964 heartbeat IPC: 3.353 cumulative IPC: 3.325 (Simulation time: 00 hr 09 min 55 sec)
Heartbeat CPU 0 instructions: 330000003 cycles: 89091217 heartbeat IPC: 3.357 cumulative IPC: 3.327 (Simulation time: 00 hr 10 min 15 sec)
Heartbeat CPU 0 instructions: 340000004 cycles: 92066636 heartbeat IPC: 3.361 cumulative IPC: 3.33 (Simulation time: 00 hr 10 min 36 sec)
Heartbeat CPU 0 instructions: 350000003 cycles: 95044996 heartbeat IPC: 3.358 cumulative IPC: 3.331 (Simulation time: 00 hr 10 min 57 sec)
Heartbeat CPU 0 instructions: 360000001 cycles: 98015457 heartbeat IPC: 3.366 cumulative IPC: 3.334 (Simulation time: 00 hr 11 min 17 sec)
Heartbeat CPU 0 instructions: 370000002 cycles: 100989141 heartbeat IPC: 3.363 cumulative IPC: 3.335 (Simulation time: 00 hr 11 min 38 sec)
Heartbeat CPU 0 instructions: 380000001 cycles: 103966659 heartbeat IPC: 3.359 cumulative IPC: 3.337 (Simulation time: 00 hr 11 min 58 sec)
Heartbeat CPU 0 instructions: 390000004 cycles: 106955289 heartbeat IPC: 3.346 cumulative IPC: 3.337 (Simulation time: 00 hr 12 min 19 sec)
Heartbeat CPU 0 instructions: 400000000 cycles: 115462356 heartbeat IPC: 1.175 cumulative IPC: 3.056 (Simulation time: 00 hr 12 min 57 sec)
Heartbeat CPU 0 instructions: 410000001 cycles: 118113226 heartbeat IPC: 3.772 cumulative IPC: 3.084 (Simulation time: 00 hr 13 min 18 sec)
Heartbeat CPU 0 instructions: 420000001 cycles: 121102780 heartbeat IPC: 3.345 cumulative IPC: 3.095 (Simulation time: 00 hr 13 min 39 sec)
Heartbeat CPU 0 instructions: 430000000 cycles: 124538092 heartbeat IPC: 2.911 cumulative IPC: 3.086 (Simulation time: 00 hr 14 min 01 sec)
Heartbeat CPU 0 instructions: 440000000 cycles: 127474965 heartbeat IPC: 3.405 cumulative IPC: 3.099 (Simulation time: 00 hr 14 min 22 sec)
Heartbeat CPU 0 instructions: 450000004 cycles: 130388730 heartbeat IPC: 3.432 cumulative IPC: 3.111 (Simulation time: 00 hr 14 min 43 sec)
Heartbeat CPU 0 instructions: 460000003 cycles: 133371772 heartbeat IPC: 3.352 cumulative IPC: 3.119 (Simulation time: 00 hr 15 min 04 sec)
Heartbeat CPU 0 instructions: 470000000 cycles: 136351717 heartbeat IPC: 3.356 cumulative IPC: 3.127 (Simulation time: 00 hr 15 min 25 sec)
Heartbeat CPU 0 instructions: 480000001 cycles: 139318141 heartbeat IPC: 3.371 cumulative IPC: 3.136 (Simulation time: 00 hr 15 min 46 sec)
Heartbeat CPU 0 instructions: 490000002 cycles: 142354616 heartbeat IPC: 3.293 cumulative IPC: 3.141 (Simulation time: 00 hr 16 min 08 sec)
Heartbeat CPU 0 instructions: 500000002 cycles: 145316146 heartbeat IPC: 3.377 cumulative IPC: 3.148 (Simulation time: 00 hr 16 min 29 sec)
Heartbeat CPU 0 instructions: 510000003 cycles: 148276319 heartbeat IPC: 3.378 cumulative IPC: 3.155 (Simulation time: 00 hr 16 min 50 sec)
Heartbeat CPU 0 instructions: 520000002 cycles: 151193519 heartbeat IPC: 3.428 cumulative IPC: 3.163 (Simulation time: 00 hr 17 min 10 sec)
Heartbeat CPU 0 instructions: 530000003 cycles: 154183351 heartbeat IPC: 3.345 cumulative IPC: 3.168 (Simulation time: 00 hr 17 min 32 sec)
Heartbeat CPU 0 instructions: 540000000 cycles: 157144590 heartbeat IPC: 3.377 cumulative IPC: 3.174 (Simulation time: 00 hr 17 min 53 sec)
Heartbeat CPU 0 instructions: 550000001 cycles: 160077565 heartbeat IPC: 3.41 cumulative IPC: 3.18 (Simulation time: 00 hr 18 min 14 sec)
Heartbeat CPU 0 instructions: 560000003 cycles: 163024337 heartbeat IPC: 3.394 cumulative IPC: 3.186 (Simulation time: 00 hr 18 min 35 sec)
Heartbeat CPU 0 instructions: 570000000 cycles: 171681001 heartbeat IPC: 1.155 cumulative IPC: 3.041 (Simulation time: 00 hr 19 min 14 sec)
Heartbeat CPU 0 instructions: 580000001 cycles: 174429705 heartbeat IPC: 3.638 cumulative IPC: 3.054 (Simulation time: 00 hr 19 min 35 sec)
Heartbeat CPU 0 instructions: 590000003 cycles: 177741121 heartbeat IPC: 3.02 cumulative IPC: 3.054 (Simulation time: 00 hr 19 min 57 sec)
Heartbeat CPU 0 instructions: 600000001 cycles: 181034249 heartbeat IPC: 3.037 cumulative IPC: 3.053 (Simulation time: 00 hr 20 min 21 sec)
Heartbeat CPU 0 instructions: 610000004 cycles: 184312512 heartbeat IPC: 3.05 cumulative IPC: 3.053 (Simulation time: 00 hr 20 min 44 sec)
Heartbeat CPU 0 instructions: 620000000 cycles: 187579442 heartbeat IPC: 3.061 cumulative IPC: 3.053 (Simulation time: 00 hr 21 min 08 sec)
Heartbeat CPU 0 instructions: 630000001 cycles: 190874462 heartbeat IPC: 3.035 cumulative IPC: 3.053 (Simulation time: 00 hr 21 min 31 sec)
Heartbeat CPU 0 instructions: 640000002 cycles: 194148189 heartbeat IPC: 3.055 cumulative IPC: 3.053 (Simulation time: 00 hr 21 min 54 sec)
Heartbeat CPU 0 instructions: 650000003 cycles: 197424360 heartbeat IPC: 3.052 cumulative IPC: 3.053 (Simulation time: 00 hr 22 min 18 sec)
Heartbeat CPU 0 instructions: 660000001 cycles: 200689223 heartbeat IPC: 3.063 cumulative IPC: 3.053 (Simulation time: 00 hr 22 min 41 sec)
Heartbeat CPU 0 instructions: 670000002 cycles: 208724093 heartbeat IPC: 1.245 cumulative IPC: 2.961 (Simulation time: 00 hr 23 min 19 sec)
Heartbeat CPU 0 instructions: 680000001 cycles: 211592301 heartbeat IPC: 3.486 cumulative IPC: 2.971 (Simulation time: 00 hr 23 min 40 sec)
Heartbeat CPU 0 instructions: 690000000 cycles: 214959332 heartbeat IPC: 2.97 cumulative IPC: 2.971 (Simulation time: 00 hr 24 min 03 sec)
Heartbeat CPU 0 instructions: 700000000 cycles: 218241330 heartbeat IPC: 3.047 cumulative IPC: 2.972 (Simulation time: 00 hr 24 min 27 sec)
Simulation finished CPU 0 instructions: 500000000 cycles: 168221466 cumulative IPC: 2.972 (Simulation time: 00 hr 24 min 27 sec)
Simulation complete CPU 0 instructions: 500000000 cycles: 168221466 cumulative IPC: 2.972 (Simulation time: 00 hr 24 min 27 sec)

ChampSim completed all CPUs

=== Simulation ===
CPU 0 runs /home/anishk/Downloads/625.x264_s-18B.champsimtrace.xz
Region of Interest Statistics

CPU 0 cumulative IPC: 2.972 instructions: 500000000 cycles: 168221466
CPU 0 Branch Prediction Accuracy: 96.8% MPKI: 1.297 Average ROB Occupancy at Mispredict: 113.7
Branch type MPKI
BRANCH_DIRECT_JUMP: 0.00799
BRANCH_INDIRECT: 0.00133
BRANCH_CONDITIONAL: 1.13
BRANCH_DIRECT_CALL: 0.0279
BRANCH_INDIRECT_CALL: 0.0391
BRANCH_RETURN: 0.0861

LLC TOTAL        ACCESS:    1317346 HIT:     520343 MISS:     797003
LLC LOAD         ACCESS:     600405 HIT:     128148 MISS:     472257
LLC RFO          ACCESS:     323882 HIT:       1604 MISS:     322278
LLC PREFETCH     ACCESS:          0 HIT:          0 MISS:          0
LLC WRITE        ACCESS:     388375 HIT:     387376 MISS:        999
LLC TRANSLATION  ACCESS:       4684 HIT:       3215 MISS:       1469
LLC PREFETCH REQUESTED:          0 ISSUED:          0 USEFUL:          0 USELESS:          0
LLC AVERAGE MISS LATENCY: 476.1 cycles
cpu0_DTLB TOTAL        ACCESS:   85409916 HIT:   83804011 MISS:    1605905
cpu0_DTLB LOAD         ACCESS:   85409916 HIT:   83804011 MISS:    1605905
cpu0_DTLB RFO          ACCESS:          0 HIT:          0 MISS:          0
cpu0_DTLB PREFETCH     ACCESS:          0 HIT:          0 MISS:          0
cpu0_DTLB WRITE        ACCESS:          0 HIT:          0 MISS:          0
cpu0_DTLB TRANSLATION  ACCESS:          0 HIT:          0 MISS:          0
cpu0_DTLB PREFETCH REQUESTED:          0 ISSUED:          0 USEFUL:          0 USELESS:          0
cpu0_DTLB AVERAGE MISS LATENCY: 3.768 cycles
cpu0_ITLB TOTAL        ACCESS:    7387408 HIT:    7382414 MISS:       4994
cpu0_ITLB LOAD         ACCESS:    7387408 HIT:    7382414 MISS:       4994
cpu0_ITLB RFO          ACCESS:          0 HIT:          0 MISS:          0
cpu0_ITLB PREFETCH     ACCESS:          0 HIT:          0 MISS:          0
cpu0_ITLB WRITE        ACCESS:          0 HIT:          0 MISS:          0
cpu0_ITLB TRANSLATION  ACCESS:          0 HIT:          0 MISS:          0
cpu0_ITLB PREFETCH REQUESTED:          0 ISSUED:          0 USEFUL:          0 USELESS:          0
cpu0_ITLB AVERAGE MISS LATENCY: 12.45 cycles
cpu0_L1D TOTAL        ACCESS:  112785052 HIT:  105693807 MISS:    7091245
cpu0_L1D LOAD         ACCESS:   75099202 HIT:   71179519 MISS:    3919683
cpu0_L1D RFO          ACCESS:          0 HIT:          0 MISS:          0
cpu0_L1D PREFETCH     ACCESS:          0 HIT:          0 MISS:          0
cpu0_L1D WRITE        ACCESS:   37673848 HIT:   34508977 MISS:    3164871
cpu0_L1D TRANSLATION  ACCESS:      12002 HIT:       5311 MISS:       6691
cpu0_L1D PREFETCH REQUESTED:          0 ISSUED:          0 USEFUL:          0 USELESS:          0
cpu0_L1D AVERAGE MISS LATENCY: 51.14 cycles
cpu0_L1I TOTAL        ACCESS:    8929092 HIT:    6202964 MISS:    2726128
cpu0_L1I LOAD         ACCESS:    8929092 HIT:    6202964 MISS:    2726128
cpu0_L1I RFO          ACCESS:          0 HIT:          0 MISS:          0
cpu0_L1I PREFETCH     ACCESS:          0 HIT:          0 MISS:          0
cpu0_L1I WRITE        ACCESS:          0 HIT:          0 MISS:          0
cpu0_L1I TRANSLATION  ACCESS:          0 HIT:          0 MISS:          0
cpu0_L1I PREFETCH REQUESTED:          0 ISSUED:          0 USEFUL:          0 USELESS:          0
cpu0_L1I AVERAGE MISS LATENCY: 5.743 cycles
cpu0_L2C TOTAL        ACCESS:    3581310 HIT:    2651722 MISS:     929588
cpu0_L2C LOAD         ACCESS:    2554228 HIT:    1953823 MISS:     600405
cpu0_L2C RFO          ACCESS:     459072 HIT:     135190 MISS:     323882
cpu0_L2C PREFETCH     ACCESS:          0 HIT:          0 MISS:          0
cpu0_L2C WRITE        ACCESS:     561444 HIT:     560827 MISS:        617
cpu0_L2C TRANSLATION  ACCESS:       6566 HIT:       1882 MISS:       4684
cpu0_L2C PREFETCH REQUESTED:          0 ISSUED:          0 USEFUL:          0 USELESS:          0
cpu0_L2C AVERAGE MISS LATENCY: 429.1 cycles
cpu0_STLB TOTAL        ACCESS:     802629 HIT:     790679 MISS:      11950
cpu0_STLB LOAD         ACCESS:     802629 HIT:     790679 MISS:      11950
cpu0_STLB RFO          ACCESS:          0 HIT:          0 MISS:          0
cpu0_STLB PREFETCH     ACCESS:          0 HIT:          0 MISS:          0
cpu0_STLB WRITE        ACCESS:          0 HIT:          0 MISS:          0
cpu0_STLB TRANSLATION  ACCESS:          0 HIT:          0 MISS:          0
cpu0_STLB PREFETCH REQUESTED:          0 ISSUED:          0 USEFUL:          0 USELESS:          0
cpu0_STLB AVERAGE MISS LATENCY: 191.5 cycles

DRAM Statistics

Channel 0 RQ ROW_BUFFER_HIT:     217673
  ROW_BUFFER_MISS:     578299
 AVG DBUS CONGESTED CYCLE: 3.97
WQ ROW_BUFFER_HIT: Channel 0 
  ROW_BUFFER_MISS:      63959
  FULL:     326450
[?2004h]0;anishk@wellsfargo-OptiPlex-5090: ~/ChampSim[01;32manishk@wellsfargo-OptiPlex-5090[00m:[01;34m~/ChampSim[00m$ 
[K]0;anishk@wellsfargo-OptiPlex-5090: ~/ChampSim[01;32manishk@wellsfargo-OptiPlex-5090[00m:[01;34m~/ChampSim[00m$ 
[K]0;anishk@wellsfargo-OptiPlex-5090: ~/ChampSim[01;32manishk@wellsfargo-OptiPlex-5090[00m:[01;34m~/ChampSim[00m$ 
[K]0;anishk@wellsfargo-OptiPlex-5090: ~/ChampSim[01;32manishk@wellsfargo-OptiPlex-5090[00m:[01;34m~/ChampSim[00m$ 
[K]0;anishk@wellsfargo-OptiPlex-5090: ~/ChampSim[01;32manishk@wellsfargo-OptiPlex-5090[00m:[01;34m~/ChampSim[00m$ 
[K]0;anishk@wellsfargo-OptiPlex-5090: ~/ChampSim[01;32manishk@wellsfargo-OptiPlex-5090[00m:[01;34m~/ChampSim[00m$ 
[K]0;anishk@wellsfargo-OptiPlex-5090: ~/ChampSim[01;32manishk@wellsfargo-OptiPlex-5090[00m:[01;34m~/ChampSim[00m$ [?2004l

exit

Script done on 2023-10-10 22:40:16+05:30 [COMMAND_EXIT_CODE="0"]


const uint8_t TAGE_INDEX_BITS[TAGE_NUM_COMPONENTS] = {14,15,13,12};
const uint8_t TAGE_TAG_BITS[TAGE_NUM_COMPONENTS] = {12,13,14,15};
