Script started on 2023-09-26 01:23:49+05:30 [TERM="xterm-256color" TTY="/dev/pts/8" COLUMNS="173" LINES="19"]
[?2004h]0;anishk@wellsfargo-OptiPlex-5090: ~/ChampSim[01;32manishk@wellsfargo-OptiPlex-5090[00m:[01;34m~/ChampSim[00m$ script trace2.txtbin/champsim --warmup_instructions 200000000 --simulation_instructions 500000000 ~/Downloads/625.x264_s-18B.champsimtrace.xz
[?2004l
WARNING: physical memory size is smaller than virtual memory size.
WARNING: option --warmup_instructions is deprecated. Use --warmup-instructions instead.
WARNING: option --simulation_instructions is deprecated. Use --simulation-instructions instead.

*** ChampSim Multicore Out-of-Order Simulator ***
Warmup Instructions: 200000000
Simulation Instructions: 500000000
Number of CPUs: 1
Page size: 4096

Off-chip DRAM Size: 4 GiB Channels: 1 Width: 64-bit Data Race: 3200 MT/s
Heartbeat CPU 0 instructions: 10000003 cycles: 2500043 heartbeat IPC: 4 cumulative IPC: 4 (Simulation time: 00 hr 00 min 18 sec)
Heartbeat CPU 0 instructions: 20000003 cycles: 5000043 heartbeat IPC: 4 cumulative IPC: 4 (Simulation time: 00 hr 00 min 38 sec)
Heartbeat CPU 0 instructions: 30000002 cycles: 7500235 heartbeat IPC: 4 cumulative IPC: 4 (Simulation time: 00 hr 00 min 58 sec)
Heartbeat CPU 0 instructions: 40000002 cycles: 10000235 heartbeat IPC: 4 cumulative IPC: 4 (Simulation time: 00 hr 01 min 18 sec)
Heartbeat CPU 0 instructions: 50000002 cycles: 12500235 heartbeat IPC: 4 cumulative IPC: 4 (Simulation time: 00 hr 01 min 39 sec)
Heartbeat CPU 0 instructions: 60000002 cycles: 15000235 heartbeat IPC: 4 cumulative IPC: 4 (Simulation time: 00 hr 01 min 59 sec)
Heartbeat CPU 0 instructions: 70000002 cycles: 17500235 heartbeat IPC: 4 cumulative IPC: 4 (Simulation time: 00 hr 02 min 19 sec)
Heartbeat CPU 0 instructions: 80000002 cycles: 20000235 heartbeat IPC: 4 cumulative IPC: 4 (Simulation time: 00 hr 02 min 37 sec)
Heartbeat CPU 0 instructions: 90000002 cycles: 22500235 heartbeat IPC: 4 cumulative IPC: 4 (Simulation time: 00 hr 02 min 57 sec)
Heartbeat CPU 0 instructions: 100000002 cycles: 25000235 heartbeat IPC: 4 cumulative IPC: 4 (Simulation time: 00 hr 03 min 16 sec)
Heartbeat CPU 0 instructions: 110000002 cycles: 27500235 heartbeat IPC: 4 cumulative IPC: 4 (Simulation time: 00 hr 03 min 35 sec)
Heartbeat CPU 0 instructions: 120000002 cycles: 30000235 heartbeat IPC: 4 cumulative IPC: 4 (Simulation time: 00 hr 03 min 53 sec)
Heartbeat CPU 0 instructions: 130000002 cycles: 32500235 heartbeat IPC: 4 cumulative IPC: 4 (Simulation time: 00 hr 04 min 12 sec)
Heartbeat CPU 0 instructions: 140000003 cycles: 35003666 heartbeat IPC: 3.995 cumulative IPC: 4 (Simulation time: 00 hr 04 min 31 sec)
Heartbeat CPU 0 instructions: 150000001 cycles: 37517413 heartbeat IPC: 3.978 cumulative IPC: 3.998 (Simulation time: 00 hr 04 min 50 sec)
Heartbeat CPU 0 instructions: 160000000 cycles: 40017799 heartbeat IPC: 3.999 cumulative IPC: 3.998 (Simulation time: 00 hr 05 min 08 sec)
Heartbeat CPU 0 instructions: 170000000 cycles: 42518301 heartbeat IPC: 3.999 cumulative IPC: 3.998 (Simulation time: 00 hr 05 min 27 sec)
Heartbeat CPU 0 instructions: 180000000 cycles: 45018892 heartbeat IPC: 3.999 cumulative IPC: 3.998 (Simulation time: 00 hr 05 min 46 sec)
Heartbeat CPU 0 instructions: 190000002 cycles: 47519495 heartbeat IPC: 3.999 cumulative IPC: 3.998 (Simulation time: 00 hr 06 min 05 sec)
Heartbeat CPU 0 instructions: 200000000 cycles: 50019864 heartbeat IPC: 3.999 cumulative IPC: 3.998 (Simulation time: 00 hr 06 min 24 sec)
Warmup finished CPU 0 instructions: 200000000 cycles: 50019865 cumulative IPC: 3.998 (Simulation time: 00 hr 06 min 24 sec)
Warmup complete CPU 0 instructions: 200000000 cycles: 50019865 cumulative IPC: 3.998 (Simulation time: 00 hr 06 min 24 sec)
Heartbeat CPU 0 instructions: 210000000 cycles: 52997638 heartbeat IPC: 3.358 cumulative IPC: 3.358 (Simulation time: 00 hr 06 min 47 sec)
Heartbeat CPU 0 instructions: 220000001 cycles: 56013857 heartbeat IPC: 3.315 cumulative IPC: 3.337 (Simulation time: 00 hr 07 min 09 sec)
Heartbeat CPU 0 instructions: 230000000 cycles: 59029749 heartbeat IPC: 3.316 cumulative IPC: 3.33 (Simulation time: 00 hr 07 min 32 sec)
Heartbeat CPU 0 instructions: 240000003 cycles: 62032509 heartbeat IPC: 3.33 cumulative IPC: 3.33 (Simulation time: 00 hr 07 min 55 sec)
Heartbeat CPU 0 instructions: 250000000 cycles: 65067575 heartbeat IPC: 3.295 cumulative IPC: 3.323 (Simulation time: 00 hr 08 min 17 sec)
Heartbeat CPU 0 instructions: 260000000 cycles: 68068890 heartbeat IPC: 3.332 cumulative IPC: 3.324 (Simulation time: 00 hr 08 min 40 sec)
Heartbeat CPU 0 instructions: 270000004 cycles: 71065454 heartbeat IPC: 3.337 cumulative IPC: 3.326 (Simulation time: 00 hr 09 min 02 sec)
Heartbeat CPU 0 instructions: 280000000 cycles: 74100369 heartbeat IPC: 3.295 cumulative IPC: 3.322 (Simulation time: 00 hr 09 min 25 sec)
Heartbeat CPU 0 instructions: 290000004 cycles: 77097110 heartbeat IPC: 3.337 cumulative IPC: 3.324 (Simulation time: 00 hr 09 min 47 sec)
Heartbeat CPU 0 instructions: 300000000 cycles: 80079408 heartbeat IPC: 3.353 cumulative IPC: 3.327 (Simulation time: 00 hr 10 min 10 sec)
Heartbeat CPU 0 instructions: 310000000 cycles: 83115465 heartbeat IPC: 3.294 cumulative IPC: 3.324 (Simulation time: 00 hr 10 min 33 sec)
Heartbeat CPU 0 instructions: 320000000 cycles: 86098164 heartbeat IPC: 3.353 cumulative IPC: 3.326 (Simulation time: 00 hr 10 min 57 sec)
Heartbeat CPU 0 instructions: 330000003 cycles: 89077607 heartbeat IPC: 3.356 cumulative IPC: 3.328 (Simulation time: 00 hr 11 min 22 sec)
Heartbeat CPU 0 instructions: 340000004 cycles: 92053763 heartbeat IPC: 3.36 cumulative IPC: 3.331 (Simulation time: 00 hr 11 min 46 sec)
Heartbeat CPU 0 instructions: 350000003 cycles: 95030713 heartbeat IPC: 3.359 cumulative IPC: 3.333 (Simulation time: 00 hr 12 min 10 sec)
Heartbeat CPU 0 instructions: 360000001 cycles: 97999697 heartbeat IPC: 3.368 cumulative IPC: 3.335 (Simulation time: 00 hr 12 min 33 sec)
Heartbeat CPU 0 instructions: 370000002 cycles: 100973264 heartbeat IPC: 3.363 cumulative IPC: 3.336 (Simulation time: 00 hr 12 min 58 sec)
Heartbeat CPU 0 instructions: 380000001 cycles: 103949705 heartbeat IPC: 3.36 cumulative IPC: 3.338 (Simulation time: 00 hr 13 min 21 sec)
Heartbeat CPU 0 instructions: 390000004 cycles: 106938063 heartbeat IPC: 3.346 cumulative IPC: 3.338 (Simulation time: 00 hr 13 min 44 sec)
Heartbeat CPU 0 instructions: 400000000 cycles: 115437236 heartbeat IPC: 1.177 cumulative IPC: 3.057 (Simulation time: 00 hr 14 min 27 sec)
Heartbeat CPU 0 instructions: 410000001 cycles: 118088106 heartbeat IPC: 3.772 cumulative IPC: 3.085 (Simulation time: 00 hr 14 min 51 sec)
Heartbeat CPU 0 instructions: 420000001 cycles: 121077570 heartbeat IPC: 3.345 cumulative IPC: 3.096 (Simulation time: 00 hr 15 min 16 sec)
Heartbeat CPU 0 instructions: 430000000 cycles: 124520187 heartbeat IPC: 2.905 cumulative IPC: 3.087 (Simulation time: 00 hr 15 min 41 sec)
Heartbeat CPU 0 instructions: 440000000 cycles: 127456331 heartbeat IPC: 3.406 cumulative IPC: 3.099 (Simulation time: 00 hr 16 min 05 sec)
Heartbeat CPU 0 instructions: 450000004 cycles: 130369670 heartbeat IPC: 3.432 cumulative IPC: 3.111 (Simulation time: 00 hr 16 min 28 sec)
Heartbeat CPU 0 instructions: 460000003 cycles: 133352317 heartbeat IPC: 3.353 cumulative IPC: 3.12 (Simulation time: 00 hr 16 min 51 sec)
Heartbeat CPU 0 instructions: 470000000 cycles: 136331207 heartbeat IPC: 3.357 cumulative IPC: 3.128 (Simulation time: 00 hr 17 min 15 sec)
Heartbeat CPU 0 instructions: 480000001 cycles: 139296880 heartbeat IPC: 3.372 cumulative IPC: 3.136 (Simulation time: 00 hr 17 min 38 sec)
Heartbeat CPU 0 instructions: 490000002 cycles: 142332895 heartbeat IPC: 3.294 cumulative IPC: 3.141 (Simulation time: 00 hr 18 min 01 sec)
Heartbeat CPU 0 instructions: 500000002 cycles: 145293170 heartbeat IPC: 3.378 cumulative IPC: 3.149 (Simulation time: 00 hr 18 min 24 sec)
Heartbeat CPU 0 instructions: 510000003 cycles: 148253558 heartbeat IPC: 3.378 cumulative IPC: 3.156 (Simulation time: 00 hr 18 min 47 sec)
Heartbeat CPU 0 instructions: 520000002 cycles: 151169806 heartbeat IPC: 3.429 cumulative IPC: 3.164 (Simulation time: 00 hr 19 min 10 sec)
Heartbeat CPU 0 instructions: 530000003 cycles: 154158823 heartbeat IPC: 3.346 cumulative IPC: 3.169 (Simulation time: 00 hr 19 min 34 sec)
Heartbeat CPU 0 instructions: 540000000 cycles: 157119565 heartbeat IPC: 3.378 cumulative IPC: 3.175 (Simulation time: 00 hr 19 min 58 sec)
Heartbeat CPU 0 instructions: 550000001 cycles: 160051970 heartbeat IPC: 3.41 cumulative IPC: 3.181 (Simulation time: 00 hr 20 min 21 sec)
Heartbeat CPU 0 instructions: 560000003 cycles: 162998992 heartbeat IPC: 3.393 cumulative IPC: 3.186 (Simulation time: 00 hr 20 min 46 sec)
Heartbeat CPU 0 instructions: 570000000 cycles: 171642104 heartbeat IPC: 1.157 cumulative IPC: 3.042 (Simulation time: 00 hr 21 min 28 sec)
Heartbeat CPU 0 instructions: 580000001 cycles: 174391880 heartbeat IPC: 3.637 cumulative IPC: 3.055 (Simulation time: 00 hr 21 min 51 sec)
Heartbeat CPU 0 instructions: 590000003 cycles: 177703306 heartbeat IPC: 3.02 cumulative IPC: 3.054 (Simulation time: 00 hr 22 min 16 sec)
Heartbeat CPU 0 instructions: 600000001 cycles: 180997069 heartbeat IPC: 3.036 cumulative IPC: 3.054 (Simulation time: 00 hr 22 min 42 sec)
Heartbeat CPU 0 instructions: 610000004 cycles: 184274922 heartbeat IPC: 3.051 cumulative IPC: 3.054 (Simulation time: 00 hr 23 min 08 sec)
Heartbeat CPU 0 instructions: 620000000 cycles: 187542142 heartbeat IPC: 3.061 cumulative IPC: 3.054 (Simulation time: 00 hr 23 min 33 sec)
Heartbeat CPU 0 instructions: 630000001 cycles: 190837582 heartbeat IPC: 3.034 cumulative IPC: 3.054 (Simulation time: 00 hr 24 min 00 sec)
Heartbeat CPU 0 instructions: 640000002 cycles: 194111469 heartbeat IPC: 3.054 cumulative IPC: 3.054 (Simulation time: 00 hr 24 min 25 sec)
Heartbeat CPU 0 instructions: 650000003 cycles: 197387550 heartbeat IPC: 3.052 cumulative IPC: 3.054 (Simulation time: 00 hr 24 min 51 sec)
Heartbeat CPU 0 instructions: 660000001 cycles: 200652483 heartbeat IPC: 3.063 cumulative IPC: 3.054 (Simulation time: 00 hr 25 min 17 sec)
Heartbeat CPU 0 instructions: 670000002 cycles: 208678085 heartbeat IPC: 1.246 cumulative IPC: 2.962 (Simulation time: 00 hr 25 min 59 sec)
Heartbeat CPU 0 instructions: 680000001 cycles: 211550036 heartbeat IPC: 3.482 cumulative IPC: 2.972 (Simulation time: 00 hr 26 min 20 sec)
Heartbeat CPU 0 instructions: 690000000 cycles: 214919777 heartbeat IPC: 2.968 cumulative IPC: 2.971 (Simulation time: 00 hr 26 min 43 sec)
Heartbeat CPU 0 instructions: 700000000 cycles: 218203235 heartbeat IPC: 3.046 cumulative IPC: 2.973 (Simulation time: 00 hr 27 min 07 sec)
Simulation finished CPU 0 instructions: 500000000 cycles: 168183371 cumulative IPC: 2.973 (Simulation time: 00 hr 27 min 07 sec)
Simulation complete CPU 0 instructions: 500000000 cycles: 168183371 cumulative IPC: 2.973 (Simulation time: 00 hr 27 min 07 sec)

ChampSim completed all CPUs

=== Simulation ===
CPU 0 runs /home/anishk/Downloads/625.x264_s-18B.champsimtrace.xz
Region of Interest Statistics

CPU 0 cumulative IPC: 2.973 instructions: 500000000 cycles: 168183371
CPU 0 Branch Prediction Accuracy: 96.81% MPKI: 1.295 Average ROB Occupancy at Mispredict: 113.9
Branch type MPKI
BRANCH_DIRECT_JUMP: 0.00799
BRANCH_INDIRECT: 0.00133
BRANCH_CONDITIONAL: 1.13
BRANCH_DIRECT_CALL: 0.0279
BRANCH_INDIRECT_CALL: 0.0391
BRANCH_RETURN: 0.0861

LLC TOTAL        ACCESS:    1317370 HIT:     520220 MISS:     797150
LLC LOAD         ACCESS:     600425 HIT:     128018 MISS:     472407
LLC RFO          ACCESS:     323857 HIT:       1579 MISS:     322278
LLC PREFETCH     ACCESS:          0 HIT:          0 MISS:          0
LLC WRITE        ACCESS:     388411 HIT:     387414 MISS:        997
LLC TRANSLATION  ACCESS:       4677 HIT:       3209 MISS:       1468
LLC PREFETCH REQUESTED:          0 ISSUED:          0 USEFUL:          0 USELESS:          0
LLC AVERAGE MISS LATENCY: 475 cycles
cpu0_DTLB TOTAL        ACCESS:   85409534 HIT:   83803463 MISS:    1606071
cpu0_DTLB LOAD         ACCESS:   85409534 HIT:   

const uint8_t TAGE_INDEX_BITS[TAGE_NUM_COMPONENTS] = {14,15,14,13};
const uint8_t TAGE_TAG_BITS[TAGE_NUM_COMPONENTS] = {7,9,9,10};